W
     RDKit          3D

  0  0  0  0  0  0  0  0  0  0999 V3000
M  V30 BEGIN CTAB
M  V30 COUNTS 240 264 0 0 0
M  V30 BEGIN ATOM
M  V30 1 W 3.489413 12.102831 -22.910887 0 VAL=-1
M  V30 2 P 11.383259 -2.412265 7.948204 0 CFG=1
M  V30 3 O 11.588453 -3.444012 9.020131 0
M  V30 4 O 11.699984 -2.786445 6.572447 0
M  V30 5 O 9.886925 -1.912311 7.969968 0
M  V30 6 O 8.003344 -2.798377 9.284725 0
M  V30 7 P 8.496895 -2.833156 7.753206 0 CFG=1
M  V30 8 O 7.596426 -2.011356 6.874125 0
M  V30 9 O 8.735855 -4.228432 7.400289 0
M  V30 10 O 12.097141 -1.044750 8.314319 0
M  V30 11 C 12.162373 -0.355348 9.033441 0
M  V30 12 C 13.272150 0.633175 9.506336 0 CFG=1
M  V30 13 O 14.563101 0.040599 9.352663 0
M  V30 14 C 13.326120 1.964489 9.031708 0 CFG=1
M  V30 15 O 13.386702 2.914796 9.914437 0
M  V30 16 C 14.574781 1.992918 8.123629 0 CFG=1
M  V30 17 O 15.178125 3.229706 8.125443 0
M  V30 18 C 15.452391 0.920806 8.660348 0 CFG=2
M  V30 19 N 16.170593 0.116178 7.693288 0
M  V30 20 C 15.593857 -0.518826 6.694378 0
M  V30 21 N 16.528589 -1.268829 6.079317 0
M  V30 22 C 17.722260 -1.089918 6.671997 0
M  V30 23 C 19.024330 -1.625531 6.448583 0
M  V30 24 O 19.423340 -2.454962 5.568255 0
M  V30 25 N 20.131596 -1.258975 7.259628 0
M  V30 26 C 19.845135 -0.360948 8.246483 0
M  V30 27 N 21.012907 -0.114281 8.892150 0
M  V30 28 N 18.589598 0.158015 8.493164 0
M  V30 29 C 17.508947 -0.178021 7.731654 0
M  V30 30 C 7.683407 -3.383939 10.327413 0
M  V30 31 C 7.790454 -2.330244 11.321010 0 CFG=1
M  V30 32 O 8.420506 -2.561811 12.588399 0
M  V30 33 C 8.334112 -1.433605 10.594151 0
M  V30 34 S 7.856662 -1.277913 9.055687 0
M  V30 35 C 9.011839 -0.344980 11.511959 0
M  V30 36 S 8.258284 1.186479 11.467720 0
M  V30 37 C 10.111118 -0.716978 12.445561 0 CFG=1
M  V30 38 N 11.312197 -0.378187 13.054581 0
M  V30 39 C 11.817282 -1.025654 14.409285 0
M  V30 40 C 12.991602 -0.975024 15.191627 0
M  V30 41 O 13.958942 -0.420244 14.969195 0
M  V30 42 N 12.976324 -1.637253 16.416985 0
M  V30 43 C 11.964006 -2.357366 16.911312 0
M  V30 44 N 11.976662 -2.878729 18.024015 0
M  V30 45 N 10.909742 -2.383629 16.087986 0
M  V30 46 C 10.819643 -1.780163 14.979711 0
M  V30 47 N 9.864662 -1.827900 14.234986 0
M  V30 48 C 9.042622 -1.620295 13.344790 0 CFG=2
M  V30 49 P 5.678302 -6.618931 6.056181 0 CFG=2
M  V30 50 O 6.879675 -6.212893 5.272906 0
M  V30 51 O 5.208157 -8.050254 5.988739 0
M  V30 52 O 4.605283 -5.792761 5.703675 0
M  V30 53 O 4.207598 -6.298129 7.781940 0
M  V30 54 P 3.862672 -5.231638 6.790956 0 CFG=2
M  V30 55 O 2.364618 -5.273280 6.599839 0
M  V30 56 O 4.463903 -3.904490 7.182323 0
M  V30 57 O 5.954236 -6.322295 7.559950 0
M  V30 58 C 5.411446 -5.075277 7.978844 0
M  V30 59 C 5.718263 -4.900041 9.472882 0 CFG=2
M  V30 60 O 7.030258 -5.567481 9.809404 0
M  V30 61 C 4.638828 -5.502017 10.229617 0 CFG=2
M  V30 62 O 4.153082 -4.588508 11.014562 0
M  V30 63 C 5.376009 -6.670827 10.980741 0 CFG=2
M  V30 64 O 4.882205 -6.844271 12.252505 0
M  V30 65 C 6.853917 -6.292469 11.082832 0 CFG=1
M  V30 66 N 7.695260 -7.538101 11.052442 0
M  V30 67 C 7.377644 -8.695532 10.479712 0
M  V30 68 N 8.356232 -9.570470 10.740876 0
M  V30 69 C 9.338701 -8.981339 11.459859 0
M  V30 70 C 10.554935 -9.395652 11.965406 0
M  V30 71 O 11.099733 -10.495678 11.902942 0
M  V30 72 N 11.354387 -8.538011 12.684396 0
M  V30 73 C 10.939331 -7.336156 12.853797 0
M  V30 74 N 11.737452 -6.499736 13.566075 0
M  V30 75 N 9.689259 -6.862629 12.346982 0
M  V30 76 C 8.907198 -7.699301 11.662600 0
M  V30 77 C 4.422291 -7.289164 7.310996 0
M  V30 78 C 4.819661 -8.188700 8.319244 0 CFG=2
M  V30 79 O 5.880538 -8.902102 8.126033 0
M  V30 80 C 4.043473 -8.374401 9.456417 0
M  V30 81 S 2.593517 -7.541725 9.822117 0
M  V30 82 C 4.648832 -9.405152 10.368227 0
M  V30 83 S 3.701925 -9.605160 11.901345 0
M  V30 84 C 5.758247 -10.257074 10.088653 0 CFG=2
M  V30 85 N 6.635739 -10.812545 11.050399 0
M  V30 86 C 8.053295 -11.172032 10.583248 0
M  V30 87 C 9.086847 -11.821681 11.151863 0
M  V30 88 O 9.048536 -12.311639 12.308505 0
M  V30 89 N 10.257143 -12.001805 10.403068 0
M  V30 90 C 10.500458 -11.542951 9.163648 0
M  V30 91 N 11.626585 -11.746023 8.467267 0
M  V30 92 N 9.552860 -10.921249 8.694272 0
M  V30 93 C 8.393267 -10.767949 9.395692 0
M  V30 94 N 7.421992 -10.173084 8.988286 0
M  V30 95 C 6.300343 -9.730222 8.918557 0 CFG=2
M  V30 96 Fe 0.621910 -2.192593 -2.236175 0 VAL=2
M  V30 97 Fe 0.925891 0.759203 -2.451379 0 VAL=2
M  V30 98 S -0.179943 -0.539493 -0.809551 0
M  V30 99 S 0.563900 -0.796004 -3.922134 0
M  V30 100 P 3.858862 31.313446 -23.349695 0 CFG=1
M  V30 101 O 4.787337 31.744820 -24.366598 0
M  V30 102 O 2.392464 31.395939 -23.764820 0
M  V30 103 O 4.101958 30.174797 -22.633133 0
M  V30 104 O 5.324980 28.735838 -22.096476 0
M  V30 105 P 4.905398 29.927620 -21.407059 0 CFG=1
M  V30 106 O 6.089649 30.728031 -21.191633 0
M  V30 107 O 4.151525 29.547623 -20.258350 0
M  V30 108 O 4.076217 32.115601 -22.166380 0
M  V30 109 C 5.050875 31.361229 -21.220745 0
M  V30 110 C 4.613770 31.861267 -19.874384 0 CFG=2
M  V30 111 O 3.335825 31.350983 -19.715322 0
M  V30 112 C 4.544506 33.343826 -19.765392 0 CFG=2
M  V30 113 O 4.975699 33.870205 -18.633265 0
M  V30 114 C 3.067606 33.601311 -19.919798 0 CFG=2
M  V30 115 O 2.667308 34.748074 -19.279882 0
M  V30 116 C 2.449661 32.402012 -19.412849 0 CFG=1
M  V30 117 N 1.185786 32.059052 -20.017319 0
M  V30 118 C 0.790478 32.161816 -21.277155 0
M  V30 119 N -0.494083 31.754620 -21.355963 0
M  V30 120 C -0.879915 31.368279 -20.151602 0
M  V30 121 C -2.035264 30.848763 -19.593555 0
M  V30 122 O -3.088301 30.647213 -20.212212 0
M  V30 123 N -2.048929 30.568676 -18.231657 0
M  V30 124 C -0.994613 30.760204 -17.460140 0
M  V30 125 N -1.167663 30.418499 -16.177017 0
M  V30 126 N 0.116990 31.258038 -17.958141 0
M  V30 127 C 0.191542 31.556423 -19.305393 0
M  V30 128 C 4.453485 28.635979 -23.493876 0
M  V30 129 C 5.394277 27.586067 -24.274185 0 CFG=1
M  V30 130 O 6.311822 28.090473 -24.894485 0
M  V30 131 C 5.640514 26.566221 -23.339523 0
M  V30 132 S 4.441646 25.361040 -23.473259 0
M  V30 133 C 7.217900 26.355259 -23.066874 0
M  V30 134 S 7.594661 24.901899 -22.108215 0
M  V30 135 C 8.258850 27.028233 -23.542271 0 CFG=1
M  V30 136 N 9.475590 27.446926 -23.540407 0
M  V30 137 C 10.032780 28.660280 -24.380142 0
M  V30 138 C 11.210451 29.294441 -24.517008 0
M  V30 139 O 12.132393 28.814503 -23.808655 0
M  V30 140 N 11.306011 30.415016 -25.489773 0
M  V30 141 C 10.336130 30.906448 -26.255379 0
M  V30 142 N 10.529827 31.872330 -27.022638 0
M  V30 143 N 9.178753 30.266830 -26.121403 0
M  V30 144 C 9.111717 29.190977 -25.259706 0
M  V30 145 N 8.182213 28.532938 -25.095888 0
M  V30 146 C 7.560620 27.618076 -24.885571 0 CFG=2
M  V30 147 P -0.382260 -14.026448 7.154352 0 CFG=1
M  V30 148 O 0.788764 -14.272504 7.997550 0
M  V30 149 O -1.545766 -13.394215 7.720485 0
M  V30 150 O -0.083441 -13.269760 6.047597 0
M  V30 151 O 0.005258 -12.853539 3.934354 0
M  V30 152 P 0.778117 -12.553441 5.169610 0 CFG=2
M  V30 153 O 2.164720 -13.059523 5.026150 0
M  V30 154 O 0.623159 -11.130236 5.563293 0
M  V30 155 O -0.776916 -15.382698 6.490367 0
M  V30 156 C -0.296318 -15.661273 5.490291 0
M  V30 157 C -0.594032 -17.076292 4.981860 0 CFG=1
M  V30 158 O -1.477052 -17.687845 5.841089 0
M  V30 159 C -1.139019 -16.979048 3.582493 0 CFG=1
M  V30 160 O -0.277582 -17.730890 2.818949 0
M  V30 161 C -2.494589 -17.582449 3.662700 0 CFG=1
M  V30 162 O -2.625592 -18.678219 2.807273 0
M  V30 163 C -2.588082 -18.120621 5.104593 0 CFG=2
M  V30 164 N -3.718524 -17.675631 5.757528 0
M  V30 165 C -3.896188 -16.454491 6.086215 0
M  V30 166 N -4.974108 -16.378185 6.794691 0
M  V30 167 C -5.536959 -17.589304 6.900439 0
M  V30 168 C -6.688966 -18.089170 7.484467 0
M  V30 169 O -7.535894 -17.434500 8.091127 0
M  V30 170 N -6.980319 -19.414129 7.373656 0
M  V30 171 C -6.186218 -20.209158 6.744280 0
M  V30 172 N -6.498420 -21.483196 6.663799 0
M  V30 173 N -5.006306 -19.739016 6.149214 0
M  V30 174 C -4.703497 -18.418674 6.230453 0
M  V30 175 C -0.911118 -13.872107 4.133441 0
M  V30 176 C -2.001146 -14.420169 3.186460 0 CFG=1
M  V30 177 O -2.811704 -13.679574 2.730042 0
M  V30 178 C -1.405708 -15.511404 2.584609 0
M  V30 179 S 0.211840 -15.814480 2.508877 0
M  V30 180 C -2.628450 -16.189558 1.820415 0
M  V30 181 S -3.167199 -17.706120 2.461376 0
M  V30 182 C -3.489194 -15.525829 0.782727 0 CFG=1
M  V30 183 N -4.293385 -15.260032 -0.174560 0
M  V30 184 C -4.892245 -13.867303 -0.607645 0
M  V30 185 C -5.567409 -13.398946 -1.628251 0
M  V30 186 O -5.867146 -14.174532 -2.417875 0
M  V30 187 N -5.886411 -11.980869 -1.594440 0
M  V30 188 C -5.546257 -11.092726 -0.660352 0
M  V30 189 N -5.875345 -9.858208 -0.719280 0
M  V30 190 N -4.886179 -11.567056 0.343496 0
M  V30 191 C -4.666277 -12.845695 0.325246 0
M  V30 192 N -4.083482 -13.438458 1.160051 0
M  V30 193 C -3.721892 -14.215445 1.809758 0 CFG=2
M  V30 194 P 1.532896 26.390608 -22.023481 0 CFG=1
M  V30 195 O 2.245905 26.501095 -23.292749 0
M  V30 196 O 1.983305 27.372118 -20.980595 0
M  V30 197 O 0.024390 26.354174 -22.061842 0
M  V30 198 O -1.481112 27.839218 -22.815876 0
M  V30 199 P -1.194287 26.360796 -22.947868 0 CFG=2
M  V30 200 O -2.185490 25.538174 -22.265043 0
M  V30 201 O -1.115839 26.149212 -24.375063 0
M  V30 202 O 1.894952 25.005997 -21.389956 0
M  V30 203 C 1.269305 24.337364 -20.785366 0
M  V30 204 C 1.679860 22.981117 -20.402063 0 CFG=1
M  V30 205 O 1.189527 22.431028 -19.266058 0
M  V30 206 C 1.847054 21.981148 -21.376373 0 CFG=1
M  V30 207 O 3.009223 21.440016 -21.493629 0
M  V30 208 C 0.739938 20.921898 -20.938665 0 CFG=1
M  V30 209 O 0.961729 19.653114 -21.399826 0
M  V30 210 C 0.660648 21.058084 -19.509508 0 CFG=2
M  V30 211 N -0.610251 20.813480 -18.852154 0
M  V30 212 C -1.575335 21.655962 -18.711624 0
M  V30 213 N -2.505090 21.160736 -17.960739 0
M  V30 214 C -2.156470 19.899733 -17.626305 0
M  V30 215 C -2.730100 18.879955 -16.857048 0
M  V30 216 O -3.816926 18.964788 -16.252401 0
M  V30 217 N -2.003613 17.639877 -16.739513 0
M  V30 218 C -0.880979 17.486752 -17.335993 0
M  V30 219 N -0.312053 16.260492 -17.145433 0
M  V30 220 N -0.267979 18.475189 -18.107672 0
M  V30 221 C -0.918162 19.695957 -18.211321 0
M  V30 222 C -1.658537 28.437231 -21.897861 0
M  V30 223 C -0.746550 29.488390 -22.220844 0 CFG=2
M  V30 224 O -0.954776 30.253544 -23.293943 0
M  V30 225 C 0.348074 29.372669 -21.689831 0
M  V30 226 S 0.502697 29.005186 -19.985262 0
M  V30 227 C 1.521156 29.836819 -22.630413 0
M  V30 228 S 3.030514 30.146358 -21.948141 0
M  V30 229 C 1.176044 29.924397 -24.037519 0 CFG=2
M  V30 230 N 2.109532 30.354778 -25.118677 0
M  V30 231 C 1.614915 30.493477 -26.567341 0
M  V30 232 C 2.179938 30.624199 -27.741539 0
M  V30 233 O 3.374348 30.829582 -27.834976 0
M  V30 234 N 1.309813 30.530762 -28.832247 0
M  V30 235 C 0.035650 30.352947 -28.765759 0
M  V30 236 N -0.723139 30.268414 -29.846275 0
M  V30 237 N -0.434436 30.297539 -27.623865 0
M  V30 238 C 0.332158 30.445339 -26.565290 0
M  V30 239 N -0.087444 30.426403 -25.301224 0
M  V30 240 C -0.011573 30.508461 -24.104929 0 CFG=1
M  V30 END ATOM
M  V30 BEGIN BOND
M  V30 1 2 2 3
M  V30 2 1 2 4 CFG=3
M  V30 3 1 2 5
M  V30 4 1 2 10
M  V30 5 1 5 7
M  V30 6 1 6 7
M  V30 7 1 6 30
M  V30 8 2 7 8
M  V30 9 1 7 9 CFG=3
M  V30 10 1 10 11
M  V30 11 1 12 11 CFG=3
M  V30 12 1 12 13
M  V30 13 1 12 14
M  V30 14 1 13 18
M  V30 15 1 14 15 CFG=1
M  V30 16 1 14 16
M  V30 17 1 16 17 CFG=1
M  V30 18 1 16 18
M  V30 19 1 18 19 CFG=3
M  V30 20 1 19 20
M  V30 21 1 19 29
M  V30 22 2 20 21
M  V30 23 1 21 22
M  V30 24 1 22 23
M  V30 25 2 22 29
M  V30 26 2 23 24
M  V30 27 1 23 25
M  V30 28 1 25 26
M  V30 29 1 26 27
M  V30 30 2 26 28
M  V30 31 1 28 29
M  V30 32 1 31 30 CFG=3
M  V30 33 1 31 32
M  V30 34 1 31 33
M  V30 35 1 32 48
M  V30 36 1 33 34
M  V30 37 2 33 35
M  V30 38 1 35 36
M  V30 39 1 35 37
M  V30 40 1 37 38 CFG=3
M  V30 41 1 37 48
M  V30 42 1 38 39
M  V30 43 1 39 40
M  V30 44 2 39 46
M  V30 45 2 40 41
M  V30 46 1 40 42
M  V30 47 1 42 43
M  V30 48 1 43 44
M  V30 49 2 43 45
M  V30 50 1 45 46
M  V30 51 1 46 47
M  V30 52 1 48 47 CFG=1
M  V30 53 2 49 50
M  V30 54 1 49 51 CFG=3
M  V30 55 1 49 52
M  V30 56 1 49 57
M  V30 57 1 52 54
M  V30 58 1 53 54
M  V30 59 1 53 77
M  V30 60 2 54 55
M  V30 61 1 54 56 CFG=3
M  V30 62 1 57 58
M  V30 63 1 59 58 CFG=1
M  V30 64 1 59 60
M  V30 65 1 59 61
M  V30 66 1 60 65
M  V30 67 1 61 62 CFG=3
M  V30 68 1 61 63
M  V30 69 1 63 64 CFG=3
M  V30 70 1 63 65
M  V30 71 1 65 66 CFG=1
M  V30 72 1 66 67
M  V30 73 1 66 76
M  V30 74 2 67 68
M  V30 75 1 68 69
M  V30 76 1 69 70
M  V30 77 2 69 76
M  V30 78 2 70 71
M  V30 79 1 70 72
M  V30 80 1 72 73
M  V30 81 1 73 74
M  V30 82 2 73 75
M  V30 83 1 75 76
M  V30 84 1 78 77 CFG=1
M  V30 85 1 78 79
M  V30 86 1 78 80
M  V30 87 1 79 95
M  V30 88 1 80 81
M  V30 89 2 80 82
M  V30 90 1 82 83
M  V30 91 1 82 84
M  V30 92 1 84 85 CFG=1
M  V30 93 1 84 95
M  V30 94 1 85 86
M  V30 95 1 86 87
M  V30 96 2 86 93
M  V30 97 2 87 88
M  V30 98 1 87 89
M  V30 99 1 89 90
M  V30 100 1 90 91
M  V30 101 2 90 92
M  V30 102 1 92 93
M  V30 103 1 93 94
M  V30 104 1 95 94 CFG=1
M  V30 105 1 96 98
M  V30 106 1 96 99
M  V30 107 1 97 98
M  V30 108 1 97 99
M  V30 109 2 100 101
M  V30 110 1 100 102 CFG=3
M  V30 111 1 100 103
M  V30 112 1 100 108
M  V30 113 1 103 105
M  V30 114 1 104 105
M  V30 115 1 104 128
M  V30 116 2 105 106
M  V30 117 1 105 107 CFG=1
M  V30 118 1 108 109
M  V30 119 1 110 109 CFG=1
M  V30 120 1 110 111
M  V30 121 1 110 112
M  V30 122 1 111 116
M  V30 123 1 112 113 CFG=3
M  V30 124 1 112 114
M  V30 125 1 114 115 CFG=3
M  V30 126 1 114 116
M  V30 127 1 116 117 CFG=1
M  V30 128 1 117 118
M  V30 129 1 117 127
M  V30 130 2 118 119
M  V30 131 1 119 120
M  V30 132 1 120 121
M  V30 133 2 120 127
M  V30 134 2 121 122
M  V30 135 1 121 123
M  V30 136 1 123 124
M  V30 137 1 124 125
M  V30 138 2 124 126
M  V30 139 1 126 127
M  V30 140 1 129 128 CFG=1
M  V30 141 1 129 130
M  V30 142 1 129 131
M  V30 143 1 130 146
M  V30 144 1 131 132
M  V30 145 2 131 133
M  V30 146 1 133 134
M  V30 147 1 133 135
M  V30 148 1 135 136 CFG=1
M  V30 149 1 135 146
M  V30 150 1 136 137
M  V30 151 1 137 138
M  V30 152 2 137 144
M  V30 153 2 138 139
M  V30 154 1 138 140
M  V30 155 1 140 141
M  V30 156 1 141 142
M  V30 157 2 141 143
M  V30 158 1 143 144
M  V30 159 1 144 145
M  V30 160 1 146 145 CFG=1
M  V30 161 2 147 148
M  V30 162 1 147 149 CFG=1
M  V30 163 1 147 150
M  V30 164 1 147 155
M  V30 165 1 150 152
M  V30 166 1 151 152
M  V30 167 1 151 175
M  V30 168 2 152 153
M  V30 169 1 152 154 CFG=3
M  V30 170 1 155 156
M  V30 171 1 157 156 CFG=1
M  V30 172 1 157 158
M  V30 173 1 157 159
M  V30 174 1 158 163
M  V30 175 1 159 160 CFG=3
M  V30 176 1 159 161
M  V30 177 1 161 162 CFG=3
M  V30 178 1 161 163
M  V30 179 1 163 164 CFG=1
M  V30 180 1 164 165
M  V30 181 1 164 174
M  V30 182 2 165 166
M  V30 183 1 166 167
M  V30 184 1 167 168
M  V30 185 2 167 174
M  V30 186 2 168 169
M  V30 187 1 168 170
M  V30 188 1 170 171
M  V30 189 1 171 172
M  V30 190 2 171 173
M  V30 191 1 173 174
M  V30 192 1 176 175 CFG=3
M  V30 193 1 176 177
M  V30 194 1 176 178
M  V30 195 1 177 193
M  V30 196 1 178 179
M  V30 197 2 178 180
M  V30 198 1 180 181
M  V30 199 1 180 182
M  V30 200 1 182 183 CFG=3
M  V30 201 1 182 193
M  V30 202 1 183 184
M  V30 203 1 184 185
M  V30 204 2 184 191
M  V30 205 2 185 186
M  V30 206 1 185 187
M  V30 207 1 187 188
M  V30 208 1 188 189
M  V30 209 2 188 190
M  V30 210 1 190 191
M  V30 211 1 191 192
M  V30 212 1 193 192 CFG=3
M  V30 213 2 194 195
M  V30 214 1 194 196 CFG=1
M  V30 215 1 194 197
M  V30 216 1 194 202
M  V30 217 1 197 199
M  V30 218 1 198 199
M  V30 219 1 198 222
M  V30 220 2 199 200
M  V30 221 1 199 201 CFG=1
M  V30 222 1 202 203
M  V30 223 1 204 203 CFG=3
M  V30 224 1 204 205
M  V30 225 1 204 206
M  V30 226 1 205 210
M  V30 227 1 206 207 CFG=1
M  V30 228 1 206 208
M  V30 229 1 208 209 CFG=1
M  V30 230 1 208 210
M  V30 231 1 210 211 CFG=3
M  V30 232 1 211 212
M  V30 233 1 211 221
M  V30 234 2 212 213
M  V30 235 1 213 214
M  V30 236 1 214 215
M  V30 237 2 214 221
M  V30 238 2 215 216
M  V30 239 1 215 217
M  V30 240 1 217 218
M  V30 241 1 218 219
M  V30 242 2 218 220
M  V30 243 1 220 221
M  V30 244 1 223 222 CFG=1
M  V30 245 1 223 224
M  V30 246 1 223 225
M  V30 247 1 224 240
M  V30 248 1 225 226
M  V30 249 2 225 227
M  V30 250 1 227 228
M  V30 251 1 227 229
M  V30 252 1 229 230 CFG=3
M  V30 253 1 229 240
M  V30 254 1 230 231
M  V30 255 1 231 232
M  V30 256 2 231 238
M  V30 257 2 232 233
M  V30 258 1 232 234
M  V30 259 1 234 235
M  V30 260 1 235 236
M  V30 261 2 235 237
M  V30 262 1 237 238
M  V30 263 1 238 239
M  V30 264 1 240 239 CFG=1
M  V30 END BOND
M  V30 BEGIN COLLECTION
M  V30 MDLV30/STEABS ATOMS=(0)
M  V30 END COLLECTION
M  V30 END CTAB
M  END
>  <model_server_result.job_id>  (1) 
U0KLM0PGsfydqzu864nncQ

>  <model_server_result.datetime_utc>  (1) 
2024-03-15 02:27:34

>  <model_server_result.server_version>  (1) 
0.9.11

>  <model_server_result.query_name>  (1) 
ligand

>  <model_server_result.source_id>  (1) 
pdb-bcif

>  <model_server_result.entry_id>  (1) 
7e5z

>  <model_server_params.name>  (1) 
atom_site

>  <model_server_params.value>  (1) 
{"label_asym_id":"C","auth_seq_id":1000}

>  <model_server_stats.io_time_ms>  (1) 
10

>  <model_server_stats.parse_time_ms>  (1) 
47

>  <model_server_stats.create_model_time_ms>  (1) 
21

>  <model_server_stats.query_time_ms>  (1) 
205

>  <model_server_stats.encode_time_ms>  (1) 
0

>  <model_server_stats.element_count>  (1) 
1

$$$$
W
     RDKit          3D

  0  0  0  0  0  0  0  0  0  0999 V3000
M  V30 BEGIN CTAB
M  V30 COUNTS 240 264 0 0 0
M  V30 BEGIN ATOM
M  V30 1 W -3.264560 4.312531 -0.877848 0 VAL=-1
M  V30 2 P -7.733401 -9.667436 2.441604 0 CFG=1
M  V30 3 O -8.078885 -8.436872 1.652000 0
M  V30 4 O -6.341555 -9.706451 2.802830 0
M  V30 5 O -8.697234 -9.766683 3.668704 0
M  V30 6 O -8.787854 -9.679104 6.009375 0
M  V30 7 P -8.463706 -10.701172 4.862044 0 CFG=1
M  V30 8 O -9.511353 -11.761893 4.771458 0
M  V30 9 O -7.057238 -11.135946 5.039995 0
M  V30 10 O -8.153793 -10.964664 1.719477 0
M  V30 11 C -9.311081 -10.749321 0.856607 0
M  V30 12 C -8.941961 -12.145220 0.447090 0 CFG=1
M  V30 13 O -7.748261 -12.154691 1.132592 0
M  V30 14 C -9.942245 -13.164540 0.956312 0 CFG=1
M  V30 15 O -10.175647 -14.051882 -0.074248 0
M  V30 16 C -9.229733 -13.683921 2.051853 0 CFG=1
M  V30 17 O -9.214487 -15.096539 1.899977 0
M  V30 18 C -7.818297 -13.202949 1.954380 0 CFG=2
M  V30 19 N -7.469399 -12.640902 3.161606 0
M  V30 20 C -8.185459 -12.505589 4.255251 0
M  V30 21 N -7.548734 -11.874957 5.236585 0
M  V30 22 C -6.377450 -11.534745 4.743676 0
M  V30 23 C -5.270493 -10.841765 5.304761 0
M  V30 24 O -5.114334 -10.366420 6.531994 0
M  V30 25 N -4.146766 -10.598847 4.593347 0
M  V30 26 C -4.156853 -11.014907 3.343183 0
M  V30 27 N -3.012197 -10.797458 2.652010 0
M  V30 28 N -5.224596 -11.737781 2.707223 0
M  V30 29 C -6.318994 -12.001055 3.458082 0
M  V30 30 C -8.879988 -8.539282 5.867108 0
M  V30 31 C -9.070684 -8.148314 7.314029 0 CFG=1
M  V30 32 O -10.281645 -8.215548 7.810602 0
M  V30 33 C -8.043906 -7.876488 8.033982 0
M  V30 34 S -6.590574 -7.141503 7.555682 0
M  V30 35 C -8.357203 -8.181366 9.503418 0
M  V30 36 S -6.912253 -7.853565 10.606023 0
M  V30 37 C -9.498511 -8.569124 10.138135 0 CFG=1
M  V30 38 N -9.883121 -9.013069 11.218762 0
M  V30 39 C -11.362656 -8.957882 11.471081 0
M  V30 40 C -12.086078 -9.287821 12.492645 0
M  V30 41 O -11.549477 -9.818201 13.375183 0
M  V30 42 N -13.450980 -8.925885 12.380449 0
M  V30 43 C -14.069225 -8.304837 11.329280 0
M  V30 44 N -15.319008 -7.909199 11.267652 0
M  V30 45 N -13.306488 -8.052526 10.359574 0
M  V30 46 C -12.090400 -8.382965 10.493313 0
M  V30 47 N -11.318242 -8.217066 9.691358 0
M  V30 48 C -10.475018 -8.088242 9.182914 0 CFG=2
M  V30 49 P -4.825997 1.956554 12.131686 0 CFG=1
M  V30 50 O -5.532897 3.124647 11.519650 0
M  V30 51 O -5.716390 0.768325 12.186425 0
M  V30 52 O -3.484945 1.793040 11.493597 0
M  V30 53 O -3.133016 0.366670 12.755289 0
M  V30 54 P -2.353738 1.403816 12.272698 0 CFG=1
M  V30 55 O -1.211515 0.583443 12.100487 0
M  V30 56 O -1.944971 2.601341 12.922949 0
M  V30 57 O -4.441475 2.229088 13.545868 0
M  V30 58 C -3.428113 1.231404 14.097176 0
M  V30 59 C -2.956818 1.846984 15.365890 0 CFG=1
M  V30 60 O -1.900978 2.515357 15.284389 0
M  V30 61 C -4.021364 2.809470 15.866788 0 CFG=1
M  V30 62 O -4.479836 2.534715 17.116636 0
M  V30 63 C -3.357021 4.187483 15.751691 0 CFG=1
M  V30 64 O -3.617561 5.009494 16.918844 0
M  V30 65 C -1.897516 3.888203 15.733612 0 CFG=2
M  V30 66 N -1.167569 4.783448 14.867821 0
M  V30 67 C -0.246861 4.468512 13.973866 0
M  V30 68 N 0.350652 5.524822 13.428480 0
M  V30 69 C -0.211764 6.595940 13.928824 0
M  V30 70 C 0.058056 8.000275 13.701311 0
M  V30 71 O 0.975194 8.423212 12.960698 0
M  V30 72 N -0.752721 8.883899 14.366132 0
M  V30 73 C -1.753908 8.470414 15.180570 0
M  V30 74 N -2.464719 9.444664 15.707287 0
M  V30 75 N -2.018216 7.111322 15.457845 0
M  V30 76 C -1.192223 6.181018 14.815317 0
M  V30 77 C -4.488307 0.603158 12.460718 0
M  V30 78 C -4.747632 -0.693539 12.562098 0 CFG=1
M  V30 79 O -5.994185 -1.332597 12.542481 0
M  V30 80 C -3.678771 -1.574008 12.628472 0
M  V30 81 S -2.027139 -1.039633 12.597494 0
M  V30 82 C -3.989180 -3.112253 12.759918 0
M  V30 83 S -2.627662 -4.098928 13.118510 0
M  V30 84 C -5.287741 -3.642772 12.672886 0 CFG=1
M  V30 85 N -5.814952 -4.930079 12.704731 0
M  V30 86 C -7.349466 -5.255075 12.585546 0
M  V30 87 C -8.083985 -6.379102 12.613260 0
M  V30 88 O -7.593893 -7.442484 12.720034 0
M  V30 89 N -9.455017 -6.188606 12.509819 0
M  V30 90 C -10.107357 -5.037899 12.390232 0
M  V30 91 N -11.422890 -4.885569 12.330950 0
M  V30 92 N -9.332426 -4.035390 12.354589 0
M  V30 93 C -8.076529 -4.145725 12.447868 0
M  V30 94 N -7.180344 -3.145366 12.453930 0
M  V30 95 C -6.206438 -2.579772 12.524915 0 CFG=1
M  V30 96 Fe -3.955404 2.246836 -0.450765 0 VAL=2
M  V30 97 Fe -4.276921 4.989074 -1.634443 0 VAL=2
M  V30 98 S -2.553331 4.216136 -0.192239 0
M  V30 99 S -4.612562 2.865359 -2.715484 0
M  V30 100 P -9.911847 14.616733 -25.927176 0 CFG=2
M  V30 101 O -9.295777 15.364512 -27.115648 0
M  V30 102 O -10.754708 13.431835 -26.262249 0
M  V30 103 O -10.682523 15.616336 -25.004259 0
M  V30 104 O -10.588285 16.670586 -22.889742 0
M  V30 105 P -10.109408 16.809681 -24.389622 0 CFG=1
M  V30 106 O -8.600294 16.883209 -24.351698 0
M  V30 107 O -10.796047 17.856941 -25.175081 0
M  V30 108 O -8.892950 14.296014 -24.864893 0
M  V30 109 C -8.361691 15.176597 -24.404665 0
M  V30 110 C -8.856904 14.976253 -23.033272 0 CFG=2
M  V30 111 O -8.432001 13.616965 -22.688284 0
M  V30 112 C -10.307672 15.095506 -23.080221 0 CFG=2
M  V30 113 O -10.691658 15.856435 -22.051720 0
M  V30 114 C -10.688863 13.655226 -22.986731 0 CFG=2
M  V30 115 O -11.918050 13.510943 -22.491598 0
M  V30 116 C -9.560310 12.989242 -22.141413 0 CFG=1
M  V30 117 N -9.450777 11.611607 -22.454327 0
M  V30 118 C -10.121312 10.919012 -23.366604 0
M  V30 119 N -9.883093 9.650044 -23.234577 0
M  V30 120 C -8.960109 9.516467 -22.252644 0
M  V30 121 C -8.321231 8.442420 -21.703169 0
M  V30 122 O -8.490716 7.222956 -22.034531 0
M  V30 123 N -7.420693 8.619366 -20.726332 0
M  V30 124 C -7.150953 9.846660 -20.333778 0
M  V30 125 N -6.233024 10.003527 -19.419510 0
M  V30 126 N -7.785448 11.014467 -20.830509 0
M  V30 127 C -8.711473 10.789861 -21.790428 0
M  V30 128 C -10.215173 16.510838 -21.978550 0
M  V30 129 C -10.318265 15.701735 -20.733469 0 CFG=1
M  V30 130 O -11.130390 16.177441 -19.747559 0
M  V30 131 C -10.549996 14.417764 -21.036652 0
M  V30 132 S -9.192326 13.743003 -21.756907 0
M  V30 133 C -11.634348 13.613400 -20.224600 0
M  V30 134 S -11.575567 11.913882 -20.408331 0
M  V30 135 C -12.675310 14.088326 -19.475698 0 CFG=2
M  V30 136 N -13.973553 13.855398 -19.230133 0
M  V30 137 C -15.030899 14.904618 -18.919523 0
M  V30 138 C -16.344742 14.888379 -18.820162 0
M  V30 139 O -16.891842 13.829220 -18.825293 0
M  V30 140 N -16.894506 16.144474 -18.686007 0
M  V30 141 C -16.266611 17.381626 -18.664078 0
M  V30 142 N -16.856731 18.511169 -18.498978 0
M  V30 143 N -15.066426 17.303383 -18.711750 0
M  V30 144 C -14.453347 16.153202 -18.766703 0
M  V30 145 N -13.236555 16.127789 -18.778664 0
M  V30 146 C -12.226921 15.380769 -18.975090 0 CFG=2
M  V30 147 P -6.820648 -8.095806 3.256940 0 CFG=2
M  V30 148 O -5.506512 -8.504738 2.666488 0
M  V30 149 O -8.104124 -8.681431 2.687504 0
M  V30 150 O -6.842322 -6.757520 3.179839 0
M  V30 151 O -6.789242 -6.216135 5.496447 0
M  V30 152 P -7.125513 -5.651407 4.052860 0 CFG=1
M  V30 153 O -6.086126 -4.601538 3.692709 0
M  V30 154 O -8.592255 -5.254409 4.047839 0
M  V30 155 O -6.845916 -8.434458 4.795112 0
M  V30 156 C -6.259193 -7.314517 5.727211 0
M  V30 157 C -6.049324 -8.289172 6.993336 0 CFG=2
M  V30 158 O -6.322995 -9.569013 6.390383 0
M  V30 159 C -7.049728 -8.005713 8.092407 0 CFG=2
M  V30 160 O -6.352433 -8.030528 9.248569 0
M  V30 161 C -8.016894 -9.203987 8.002861 0 CFG=2
M  V30 162 O -8.140559 -9.831939 9.283407 0
M  V30 163 C -7.399856 -10.257038 7.092754 0 CFG=1
M  V30 164 N -8.390511 -10.571274 6.045591 0
M  V30 165 C -9.125667 -9.731018 5.367652 0
M  V30 166 N -9.820238 -10.395031 4.512192 0
M  V30 167 C -9.576400 -11.716446 4.580265 0
M  V30 168 C -10.026006 -12.841796 3.881981 0
M  V30 169 O -10.834790 -12.918928 2.908676 0
M  V30 170 N -9.573840 -14.092790 4.196561 0
M  V30 171 C -8.729259 -14.184149 5.165282 0
M  V30 172 N -8.346670 -15.405334 5.399737 0
M  V30 173 N -8.221616 -13.095185 5.882537 0
M  V30 174 C -8.672521 -11.848353 5.562470 0
M  V30 175 C -6.893158 -6.811526 6.246682 0
M  V30 176 C -6.091729 -6.828211 7.498758 0 CFG=1
M  V30 177 O -6.737249 -7.348584 8.591906 0
M  V30 178 C -4.972059 -7.544347 7.267973 0
M  V30 179 S -4.035312 -7.250402 5.914087 0
M  V30 180 C -4.421701 -8.256060 8.517844 0
M  V30 181 S -2.694676 -8.698099 8.379818 0
M  V30 182 C -5.054160 -8.603791 9.742998 0 CFG=2
M  V30 183 N -4.894025 -9.796907 10.653456 0
M  V30 184 C -6.091545 -10.655858 11.073948 0
M  V30 185 C -6.270649 -11.821265 11.807947 0
M  V30 186 O -5.561256 -12.376444 12.540712 0
M  V30 187 N -7.486584 -12.476084 11.809496 0
M  V30 188 C -8.492971 -12.098041 11.143604 0
M  V30 189 N -9.531116 -12.720178 11.126971 0
M  V30 190 N -8.275602 -10.913484 10.497250 0
M  V30 191 C -7.128275 -10.213897 10.551170 0
M  V30 192 N -6.897280 -9.122553 10.040336 0
M  V30 193 C -6.264900 -7.975617 9.637212 0 CFG=2
M  V30 194 P -7.420953 12.315205 -29.436470 0 CFG=2
M  V30 195 O -6.674864 11.225947 -28.740883 0
M  V30 196 O -6.597641 13.277242 -30.225803 0
M  V30 197 O -8.436282 13.001683 -28.674997 0
M  V30 198 O -10.735126 13.169261 -29.041883 0
M  V30 199 P -9.676086 12.301598 -28.249668 0 CFG=1
M  V30 200 O -9.800424 10.902724 -28.731258 0
M  V30 201 O -9.672453 12.508934 -26.794878 0
M  V30 202 O -8.531209 11.720885 -30.239281 0
M  V30 203 C -9.253973 11.817205 -30.688076 0
M  V30 204 C -10.411999 12.197693 -30.127583 0 CFG=1
M  V30 205 O -10.477789 11.727954 -28.790333 0
M  V30 206 C -10.742239 13.546391 -30.289452 0 CFG=1
M  V30 207 O -11.575868 13.695833 -31.184193 0
M  V30 208 C -11.133342 13.845358 -28.828819 0 CFG=1
M  V30 209 O -12.133279 14.739795 -28.593580 0
M  V30 210 C -11.284377 12.587141 -28.163019 0 CFG=2
M  V30 211 N -11.046346 12.675680 -26.793833 0
M  V30 212 C -11.419859 13.617909 -26.014980 0
M  V30 213 N -11.183928 13.364178 -24.723707 0
M  V30 214 C -10.605994 12.170735 -24.682970 0
M  V30 215 C -10.166688 11.368570 -23.645086 0
M  V30 216 O -10.257400 11.582587 -22.402222 0
M  V30 217 N -9.587307 10.195400 -23.868439 0
M  V30 218 C -9.435232 9.841386 -25.128559 0
M  V30 219 N -8.819714 8.670161 -25.385624 0
M  V30 220 N -9.898643 10.578432 -26.327320 0
M  V30 221 C -10.494348 11.746440 -26.000511 0
M  V30 222 C -10.846456 13.922734 -29.490679 0
M  V30 223 C -12.166608 14.010627 -30.142584 0 CFG=1
M  V30 224 O -12.737411 14.976163 -29.732805 0
M  V30 225 C -12.539776 13.229859 -31.174915 0
M  V30 226 S -12.154491 11.642006 -31.525894 0
M  V30 227 C -13.604900 13.999217 -32.078247 0
M  V30 228 S -14.409928 13.094975 -33.356594 0
M  V30 229 C -13.930648 15.239469 -31.973927 0 CFG=2
M  V30 230 N -14.310467 16.249046 -32.764141 0
M  V30 231 C -13.923545 17.697212 -32.541519 0
M  V30 232 C -14.181234 18.743103 -33.374241 0
M  V30 233 O -14.908052 18.547165 -34.305569 0
M  V30 234 N -13.516475 19.950424 -32.965656 0
M  V30 235 C -12.697469 20.123001 -31.885326 0
M  V30 236 N -12.084897 21.232998 -31.675526 0
M  V30 237 N -12.551795 19.107552 -31.125816 0
M  V30 238 C -13.191787 17.972275 -31.396152 0
M  V30 239 N -13.067816 17.010605 -30.562946 0
M  V30 240 C -13.570998 15.771432 -30.637249 0 CFG=2
M  V30 END ATOM
M  V30 BEGIN BOND
M  V30 1 2 2 3
M  V30 2 1 2 4 CFG=1
M  V30 3 1 2 5
M  V30 4 1 2 10
M  V30 5 1 5 7
M  V30 6 1 6 7
M  V30 7 1 6 30
M  V30 8 2 7 8
M  V30 9 1 7 9 CFG=1
M  V30 10 1 10 11
M  V30 11 1 12 11 CFG=1
M  V30 12 1 12 13
M  V30 13 1 12 14
M  V30 14 1 13 18
M  V30 15 1 14 15 CFG=3
M  V30 16 1 14 16
M  V30 17 1 16 17 CFG=3
M  V30 18 1 16 18
M  V30 19 1 18 19 CFG=1
M  V30 20 1 19 20
M  V30 21 1 19 29
M  V30 22 2 20 21
M  V30 23 1 21 22
M  V30 24 1 22 23
M  V30 25 2 22 29
M  V30 26 2 23 24
M  V30 27 1 23 25
M  V30 28 1 25 26
M  V30 29 1 26 27
M  V30 30 2 26 28
M  V30 31 1 28 29
M  V30 32 1 31 30 CFG=1
M  V30 33 1 31 32
M  V30 34 1 31 33
M  V30 35 1 32 48
M  V30 36 1 33 34
M  V30 37 2 33 35
M  V30 38 1 35 36
M  V30 39 1 35 37
M  V30 40 1 37 38 CFG=3
M  V30 41 1 37 48
M  V30 42 1 38 39
M  V30 43 1 39 40
M  V30 44 2 39 46
M  V30 45 2 40 41
M  V30 46 1 40 42
M  V30 47 1 42 43
M  V30 48 1 43 44
M  V30 49 2 43 45
M  V30 50 1 45 46
M  V30 51 1 46 47
M  V30 52 1 48 47 CFG=1
M  V30 53 2 49 50
M  V30 54 1 49 51 CFG=1
M  V30 55 1 49 52
M  V30 56 1 49 57
M  V30 57 1 52 54
M  V30 58 1 53 54
M  V30 59 1 53 77
M  V30 60 2 54 55
M  V30 61 1 54 56 CFG=1
M  V30 62 1 57 58
M  V30 63 1 59 58 CFG=3
M  V30 64 1 59 60
M  V30 65 1 59 61
M  V30 66 1 60 65
M  V30 67 1 61 62 CFG=1
M  V30 68 1 61 63
M  V30 69 1 63 64 CFG=1
M  V30 70 1 63 65
M  V30 71 1 65 66 CFG=3
M  V30 72 1 66 67
M  V30 73 1 66 76
M  V30 74 2 67 68
M  V30 75 1 68 69
M  V30 76 1 69 70
M  V30 77 2 69 76
M  V30 78 2 70 71
M  V30 79 1 70 72
M  V30 80 1 72 73
M  V30 81 1 73 74
M  V30 82 2 73 75
M  V30 83 1 75 76
M  V30 84 1 78 77 CFG=3
M  V30 85 1 78 79
M  V30 86 1 78 80
M  V30 87 1 79 95
M  V30 88 1 80 81
M  V30 89 2 80 82
M  V30 90 1 82 83
M  V30 91 1 82 84
M  V30 92 1 84 85 CFG=3
M  V30 93 1 84 95
M  V30 94 1 85 86
M  V30 95 1 86 87
M  V30 96 2 86 93
M  V30 97 2 87 88
M  V30 98 1 87 89
M  V30 99 1 89 90
M  V30 100 1 90 91
M  V30 101 2 90 92
M  V30 102 1 92 93
M  V30 103 1 93 94
M  V30 104 1 95 94 CFG=3
M  V30 105 1 96 98
M  V30 106 1 96 99
M  V30 107 1 97 98
M  V30 108 1 97 99
M  V30 109 2 100 101
M  V30 110 1 100 102 CFG=1
M  V30 111 1 100 103
M  V30 112 1 100 108
M  V30 113 1 103 105
M  V30 114 1 104 105
M  V30 115 1 104 128
M  V30 116 2 105 106
M  V30 117 1 105 107 CFG=3
M  V30 118 1 108 109
M  V30 119 1 110 109 CFG=1
M  V30 120 1 110 111
M  V30 121 1 110 112
M  V30 122 1 111 116
M  V30 123 1 112 113 CFG=3
M  V30 124 1 112 114
M  V30 125 1 114 115 CFG=3
M  V30 126 1 114 116
M  V30 127 1 116 117 CFG=1
M  V30 128 1 117 118
M  V30 129 1 117 127
M  V30 130 2 118 119
M  V30 131 1 119 120
M  V30 132 1 120 121
M  V30 133 2 120 127
M  V30 134 2 121 122
M  V30 135 1 121 123
M  V30 136 1 123 124
M  V30 137 1 124 125
M  V30 138 2 124 126
M  V30 139 1 126 127
M  V30 140 1 129 128 CFG=3
M  V30 141 1 129 130
M  V30 142 1 129 131
M  V30 143 1 130 146
M  V30 144 1 131 132
M  V30 145 2 131 133
M  V30 146 1 133 134
M  V30 147 1 133 135
M  V30 148 1 135 136 CFG=3
M  V30 149 1 135 146
M  V30 150 1 136 137
M  V30 151 1 137 138
M  V30 152 2 137 144
M  V30 153 2 138 139
M  V30 154 1 138 140
M  V30 155 1 140 141
M  V30 156 1 141 142
M  V30 157 2 141 143
M  V30 158 1 143 144
M  V30 159 1 144 145
M  V30 160 1 146 145 CFG=3
M  V30 161 2 147 148
M  V30 162 1 147 149 CFG=1
M  V30 163 1 147 150
M  V30 164 1 147 155
M  V30 165 1 150 152
M  V30 166 1 151 152
M  V30 167 1 151 175
M  V30 168 2 152 153
M  V30 169 1 152 154 CFG=1
M  V30 170 1 155 156
M  V30 171 1 157 156 CFG=1
M  V30 172 1 157 158
M  V30 173 1 157 159
M  V30 174 1 158 163
M  V30 175 1 159 160 CFG=3
M  V30 176 1 159 161
M  V30 177 1 161 162 CFG=3
M  V30 178 1 161 163
M  V30 179 1 163 164 CFG=1
M  V30 180 1 164 165
M  V30 181 1 164 174
M  V30 182 2 165 166
M  V30 183 1 166 167
M  V30 184 1 167 168
M  V30 185 2 167 174
M  V30 186 2 168 169
M  V30 187 1 168 170
M  V30 188 1 170 171
M  V30 189 1 171 172
M  V30 190 2 171 173
M  V30 191 1 173 174
M  V30 192 1 176 175 CFG=3
M  V30 193 1 176 177
M  V30 194 1 176 178
M  V30 195 1 177 193
M  V30 196 1 178 179
M  V30 197 2 178 180
M  V30 198 1 180 181
M  V30 199 1 180 182
M  V30 200 1 182 183 CFG=3
M  V30 201 1 182 193
M  V30 202 1 183 184
M  V30 203 1 184 185
M  V30 204 2 184 191
M  V30 205 2 185 186
M  V30 206 1 185 187
M  V30 207 1 187 188
M  V30 208 1 188 189
M  V30 209 2 188 190
M  V30 210 1 190 191
M  V30 211 1 191 192
M  V30 212 1 193 192 CFG=3
M  V30 213 2 194 195
M  V30 214 1 194 196 CFG=1
M  V30 215 1 194 197
M  V30 216 1 194 202
M  V30 217 1 197 199
M  V30 218 1 198 199
M  V30 219 1 198 222
M  V30 220 2 199 200
M  V30 221 1 199 201 CFG=1
M  V30 222 1 202 203
M  V30 223 1 204 203 CFG=1
M  V30 224 1 204 205
M  V30 225 1 204 206
M  V30 226 1 205 210
M  V30 227 1 206 207 CFG=3
M  V30 228 1 206 208
M  V30 229 1 208 209 CFG=3
M  V30 230 1 208 210
M  V30 231 1 210 211 CFG=1
M  V30 232 1 211 212
M  V30 233 1 211 221
M  V30 234 2 212 213
M  V30 235 1 213 214
M  V30 236 1 214 215
M  V30 237 2 214 221
M  V30 238 2 215 216
M  V30 239 1 215 217
M  V30 240 1 217 218
M  V30 241 1 218 219
M  V30 242 2 218 220
M  V30 243 1 220 221
M  V30 244 1 223 222 CFG=3
M  V30 245 1 223 224
M  V30 246 1 223 225
M  V30 247 1 224 240
M  V30 248 1 225 226
M  V30 249 2 225 227
M  V30 250 1 227 228
M  V30 251 1 227 229
M  V30 252 1 229 230 CFG=3
M  V30 253 1 229 240
M  V30 254 1 230 231
M  V30 255 1 231 232
M  V30 256 2 231 238
M  V30 257 2 232 233
M  V30 258 1 232 234
M  V30 259 1 234 235
M  V30 260 1 235 236
M  V30 261 2 235 237
M  V30 262 1 237 238
M  V30 263 1 238 239
M  V30 264 1 240 239 CFG=3
M  V30 END BOND
M  V30 BEGIN COLLECTION
M  V30 MDLV30/STEABS ATOMS=(0)
M  V30 END COLLECTION
M  V30 END CTAB
M  END
>  <model_server_result.job_id>  (2) 
U0KLM0PGsfydqzu864nncQ

>  <model_server_result.datetime_utc>  (2) 
2024-03-15 02:27:34

>  <model_server_result.server_version>  (2) 
0.9.11

>  <model_server_result.query_name>  (2) 
ligand

>  <model_server_result.source_id>  (2) 
pdb-bcif

>  <model_server_result.entry_id>  (2) 
7e5z

>  <model_server_params.name>  (2) 
atom_site

>  <model_server_params.value>  (2) 
{"label_asym_id":"C","auth_seq_id":1000}

>  <model_server_stats.io_time_ms>  (2) 
10

>  <model_server_stats.parse_time_ms>  (2) 
47

>  <model_server_stats.create_model_time_ms>  (2) 
21

>  <model_server_stats.query_time_ms>  (2) 
205

>  <model_server_stats.encode_time_ms>  (2) 
0

>  <model_server_stats.element_count>  (2) 
1

$$$$
W
     RDKit          3D

  0  0  0  0  0  0  0  0  0  0999 V3000
M  V30 BEGIN CTAB
M  V30 COUNTS 240 264 0 0 0
M  V30 BEGIN ATOM
M  V30 1 W 14.785028 4.546066 21.514441 0 VAL=-1
M  V30 2 P 4.469245 1.875362 -11.091879 0 CFG=1
M  V30 3 O 5.094568 3.159190 -10.693350 0
M  V30 4 O 4.568790 0.663796 -10.189485 0
M  V30 5 O 2.856844 2.179760 -11.412725 0
M  V30 6 O 0.927838 3.373150 -12.289202 0
M  V30 7 P 2.431193 2.937279 -12.679834 0 CFG=2
M  V30 8 O 2.381487 1.925282 -13.740562 0
M  V30 9 O 3.280242 4.136145 -12.882547 0
M  V30 10 O 4.919616 1.416304 -12.541096 0
M  V30 11 C 4.944080 0.813422 -13.027046 0
M  V30 12 C 5.327592 -0.134335 -14.151562 0 CFG=1
M  V30 13 O 6.173369 0.530377 -15.110075 0
M  V30 14 C 6.104326 -1.381645 -13.670164 0 CFG=1
M  V30 15 O 5.300062 -2.487827 -13.903011 0
M  V30 16 C 7.349150 -1.462590 -14.489344 0 CFG=1
M  V30 17 O 7.450280 -2.720429 -15.226475 0
M  V30 18 C 7.237900 -0.329898 -15.468561 0 CFG=2
M  V30 19 N 8.482283 0.376638 -15.493540 0
M  V30 20 C 8.881462 1.212314 -14.543663 0
M  V30 21 N 10.026133 1.800794 -14.944798 0
M  V30 22 C 10.319168 1.299314 -16.139837 0
M  V30 23 C 11.390329 1.518391 -17.034628 0
M  V30 24 O 12.284101 2.294538 -16.815733 0
M  V30 25 N 11.408428 0.807044 -18.214645 0
M  V30 26 C 10.454153 -0.054937 -18.512491 0
M  V30 27 N 10.626125 -0.674488 -19.683619 0
M  V30 28 N 9.429964 -0.309814 -17.712170 0
M  V30 29 C 9.322699 0.379888 -16.511776 0
M  V30 30 C -0.002785 4.260112 -11.241457 0
M  V30 31 C -0.810737 3.276432 -11.213003 0 CFG=1
M  V30 32 O -2.199863 3.419696 -11.577282 0
M  V30 33 C -0.145923 2.537072 -11.916798 0
M  V30 34 S 1.435113 2.953986 -12.155216 0
M  V30 35 C -0.844082 1.309142 -12.163595 0
M  V30 36 S 0.126708 -0.102345 -12.090748 0
M  V30 37 C -2.163796 1.164375 -12.476488 0 CFG=1
M  V30 38 N -2.878518 0.257619 -13.009851 0
M  V30 39 C -4.107199 0.450945 -13.742699 0
M  V30 40 C -4.776911 -0.375684 -14.439682 0
M  V30 41 O -4.446144 -1.490219 -14.372208 0
M  V30 42 N -5.737579 0.220358 -15.138237 0
M  V30 43 C -6.102229 1.547846 -15.189789 0
M  V30 44 N -6.980448 2.032904 -15.942808 0
M  V30 45 N -5.441200 2.203601 -14.425388 0
M  V30 46 C -4.550268 1.733666 -13.654593 0
M  V30 47 N -3.980878 2.455590 -12.792690 0
M  V30 48 C -2.987565 2.260658 -11.964819 0 CFG=2
M  V30 49 P 1.263135 3.924145 -6.947283 0 CFG=1
M  V30 50 O -0.119749 3.524932 -6.961819 0
M  V30 51 O 1.943750 4.212602 -5.609012 0
M  V30 52 O 2.194425 3.064891 -7.869782 0
M  V30 53 O 0.821363 2.733658 -9.813860 0
M  V30 54 P 1.795894 1.994298 -8.788108 0 CFG=1
M  V30 55 O 3.021502 1.553795 -9.513594 0
M  V30 56 O 1.008691 0.906871 -8.062578 0
M  V30 57 O 1.362687 5.299442 -7.864294 0
M  V30 58 C 1.186299 5.472741 -8.837424 0
M  V30 59 C 1.415310 6.905799 -9.424457 0 CFG=1
M  V30 60 O 1.110104 7.902583 -8.322596 0
M  V30 61 C 2.824504 7.137218 -9.901888 0 CFG=1
M  V30 62 O 2.751850 7.623545 -11.152149 0
M  V30 63 C 3.369843 8.234345 -8.941537 0 CFG=1
M  V30 64 O 4.136556 9.215238 -9.612114 0
M  V30 65 C 2.176708 8.893110 -8.317107 0 CFG=2
M  V30 66 N 2.466059 9.119145 -6.970295 0
M  V30 67 C 3.094857 8.255452 -6.129405 0
M  V30 68 N 3.082042 8.904341 -4.895801 0
M  V30 69 C 2.481773 10.103347 -4.983458 0
M  V30 70 C 2.178144 11.143958 -4.098864 0
M  V30 71 O 2.488407 11.041511 -2.928058 0
M  V30 72 N 1.548090 12.243954 -4.552236 0
M  V30 73 C 1.179588 12.393552 -5.833304 0
M  V30 74 N 0.597736 13.522778 -6.140528 0
M  V30 75 N 1.435168 11.411443 -6.711223 0
M  V30 76 C 2.079612 10.245079 -6.311897 0
M  V30 77 C 0.466418 4.215793 -9.577480 0
M  V30 78 C -0.771569 4.394196 -10.665485 0 CFG=1
M  V30 79 O -0.753434 5.134149 -11.643936 0
M  V30 80 C -1.159217 3.166426 -10.700951 0
M  V30 81 S -1.968883 2.581733 -9.276147 0
M  V30 82 C -1.147076 2.601008 -12.270191 0
M  V30 83 S -1.262284 0.811101 -12.394436 0
M  V30 84 C -1.066431 3.341138 -13.450197 0 CFG=2
M  V30 85 N -0.657685 3.172382 -14.666460 0
M  V30 86 C -0.102222 4.299353 -15.638264 0
M  V30 87 C 0.404665 4.166839 -16.864872 0
M  V30 88 O 0.467978 3.079991 -17.392630 0
M  V30 89 N 0.797059 5.370151 -17.443087 0
M  V30 90 C 0.733205 6.601871 -16.860277 0
M  V30 91 N 1.124390 7.536058 -17.573851 0
M  V30 92 N 0.249720 6.631798 -15.670481 0
M  V30 93 C -0.182622 5.532993 -15.055368 0
M  V30 94 N -0.676815 5.603647 -13.825346 0
M  V30 95 C -1.201615 4.904108 -12.952141 0 CFG=2
M  V30 96 Fe -1.347579 1.896536 2.402992 0 VAL=2
M  V30 97 Fe 0.643407 4.215698 2.252048 0 VAL=2
M  V30 98 S 1.074970 1.932087 2.675399 0
M  V30 99 S -1.443463 4.044600 2.694358 0
M  V30 100 P -6.640500 9.073286 -7.930716 0 CFG=2
M  V30 101 O -5.279672 9.572465 -8.251381 0
M  V30 102 O -6.756966 8.105042 -6.891111 0
M  V30 103 O -7.489497 8.724409 -9.186468 0
M  V30 104 O -6.739803 8.187257 -10.531964 0
M  V30 105 P -7.580737 7.544972 -9.950550 0 CFG=1
M  V30 106 O -7.038802 6.465854 -10.623654 0
M  V30 107 O -8.842892 7.166308 -9.538553 0
M  V30 108 O -7.502907 10.402274 -7.505775 0
M  V30 109 C -8.079926 11.020469 -8.296411 0
M  V30 110 C -8.703920 11.970963 -7.597263 0 CFG=2
M  V30 111 O -9.521496 11.322705 -6.538786 0
M  V30 112 C -9.161518 13.261332 -7.663221 0 CFG=1
M  V30 113 O -8.721928 14.172093 -8.271247 0
M  V30 114 C -10.680830 13.153393 -7.410899 0 CFG=2
M  V30 115 O -11.212498 14.388886 -7.455687 0
M  V30 116 C -10.663343 12.328145 -6.319368 0 CFG=1
M  V30 117 N -11.816689 11.485454 -6.065207 0
M  V30 118 C -12.518213 10.793188 -6.950410 0
M  V30 119 N -13.525763 10.146235 -6.287902 0
M  V30 120 C -13.429737 10.456595 -4.982411 0
M  V30 121 C -14.134583 10.095622 -3.869995 0
M  V30 122 O -15.151310 9.313012 -3.838170 0
M  V30 123 N -13.800901 10.581904 -2.661853 0
M  V30 124 C -12.751740 11.422756 -2.566174 0
M  V30 125 N -12.466202 11.887931 -1.339882 0
M  V30 126 N -11.980425 11.817310 -3.680830 0
M  V30 127 C -12.324350 11.331438 -4.866849 0
M  V30 128 C -7.060092 9.468310 -10.846846 0
M  V30 129 C -5.679522 9.855938 -10.646458 0 CFG=2
M  V30 130 O -4.974775 9.714333 -11.729517 0
M  V30 131 C -5.244541 9.518721 -9.510500 0
M  V30 132 S -5.842344 10.225041 -8.073331 0
M  V30 133 C -3.734251 8.877890 -9.636265 0
M  V30 134 S -3.159326 8.413807 -8.069778 0
M  V30 135 C -3.095500 8.577759 -10.777075 0 CFG=2
M  V30 136 N -1.705450 8.361920 -11.232826 0
M  V30 137 C -1.357312 8.373702 -12.747429 0
M  V30 138 C -0.294464 8.141660 -13.476557 0
M  V30 139 O 0.751063 7.936742 -13.020372 0
M  V30 140 N -0.489868 8.112810 -14.867577 0
M  V30 141 C -1.615481 8.295043 -15.495247 0
M  V30 142 N -1.769779 8.168287 -16.699699 0
M  V30 143 N -2.616315 8.624315 -14.695951 0
M  V30 144 C -2.412862 8.699428 -13.417248 0
M  V30 145 N -3.233778 9.019356 -12.600296 0
M  V30 146 C -3.716012 9.414477 -11.695736 0 CFG=1
M  V30 147 P 20.144344 -7.437349 26.849928 0 CFG=2
M  V30 148 O 21.026608 -7.395483 25.658808 0
M  V30 149 O 20.623053 -6.982404 28.119970 0
M  V30 150 O 19.490494 -8.851826 26.934299 0
M  V30 151 O 20.654808 -10.608935 25.772430 0
M  V30 152 P 20.117384 -10.212419 27.260530 0 CFG=1
M  V30 153 O 21.307001 -10.173014 28.102495 0
M  V30 154 O 18.982021 -11.032956 27.729271 0
M  V30 155 O 18.864590 -6.712088 26.465946 0
M  V30 156 C 18.266361 -6.255291 26.228123 0
M  V30 157 C 17.088995 -6.816738 25.873295 0 CFG=1
M  V30 158 O 16.198822 -6.616263 27.064251 0
M  V30 159 C 16.243259 -6.162824 24.731750 0 CFG=1
M  V30 160 O 16.409348 -6.062827 23.699974 0
M  V30 161 C 14.808090 -6.686521 25.199070 0 CFG=1
M  V30 162 O 14.408678 -7.819333 24.521671 0
M  V30 163 C 14.869478 -6.813747 26.535034 0 CFG=2
M  V30 164 N 13.981096 -6.006953 27.385128 0
M  V30 165 C 13.584612 -4.674450 27.290449 0
M  V30 166 N 12.752054 -4.372355 28.342728 0
M  V30 167 C 12.631460 -5.507944 29.075014 0
M  V30 168 C 11.920649 -5.804267 30.224253 0
M  V30 169 O 11.174763 -5.008734 30.860018 0
M  V30 170 N 11.954277 -7.071834 30.757956 0
M  V30 171 C 12.701220 -8.004735 30.147070 0
M  V30 172 N 12.710445 -9.301380 30.675795 0
M  V30 173 N 13.489542 -7.731046 28.938700 0
M  V30 174 C 13.413780 -6.534937 28.451229 0
M  V30 175 C 20.587599 -10.693280 24.633858 0
M  V30 176 C 21.647791 -9.546083 24.241508 0 CFG=2
M  V30 177 O 22.631533 -9.904880 23.682617 0
M  V30 178 C 21.394495 -9.164820 25.216051 0
M  V30 179 S 20.072260 -8.072936 25.028574 0
M  V30 180 C 22.670908 -9.344318 26.126221 0
M  V30 181 S 22.733370 -8.140642 27.363028 0
M  V30 182 C 23.786209 -10.274119 25.925375 0 CFG=1
M  V30 183 N 24.574846 -11.226401 26.072426 0
M  V30 184 C 25.345932 -12.058084 24.934797 0
M  V30 185 C 26.160067 -13.149694 24.852449 0
M  V30 186 O 26.471226 -13.645466 25.810026 0
M  V30 187 N 26.618481 -13.436106 23.473396 0
M  V30 188 C 26.284433 -12.837465 22.326191 0
M  V30 189 N 26.743362 -13.150036 21.152861 0
M  V30 190 N 25.505178 -11.879908 22.455725 0
M  V30 191 C 25.157722 -11.549701 23.662878 0
M  V30 192 N 24.457659 -10.647986 23.930843 0
M  V30 193 C 23.838278 -9.790535 24.383871 0 CFG=1
M  V30 194 P 5.418923 0.851808 -9.749840 0 CFG=2
M  V30 195 O 4.901929 0.058223 -10.959369 0
M  V30 196 O 6.559999 0.222507 -8.965885 0
M  V30 197 O 4.138894 0.944085 -8.595779 0
M  V30 198 O 2.505262 0.128403 -6.962472 0
M  V30 199 P 3.267008 -0.444088 -8.113970 0 CFG=1
M  V30 200 O 2.342375 -0.717890 -9.221124 0
M  V30 201 O 4.211894 -1.441788 -7.616484 0
M  V30 202 O 5.677995 2.269534 -10.168741 0
M  V30 203 C 5.350980 2.948125 -10.579979 0
M  V30 204 C 6.349553 3.711336 -11.107545 0 CFG=1
M  V30 205 O 5.851649 4.799270 -11.933273 0
M  V30 206 C 7.381778 4.328927 -10.202522 0 CFG=1
M  V30 207 O 8.725750 4.089999 -10.508052 0
M  V30 208 C 7.072069 5.868353 -10.191036 0 CFG=1
M  V30 209 O 8.129847 6.657343 -9.836386 0
M  V30 210 C 6.584721 6.046700 -11.578226 0 CFG=2
M  V30 211 N 5.659166 7.152426 -11.591574 0
M  V30 212 C 4.753597 7.504683 -10.710195 0
M  V30 213 N 4.202448 8.661059 -11.071552 0
M  V30 214 C 4.742358 9.034990 -12.224407 0
M  V30 215 C 4.569215 10.136079 -13.101206 0
M  V30 216 O 3.723228 11.106634 -12.877407 0
M  V30 217 N 5.353606 10.177045 -14.259741 0
M  V30 218 C 6.226280 9.213396 -14.530703 0
M  V30 219 N 6.935242 9.307044 -15.686033 0
M  V30 220 N 6.415682 8.136481 -13.703005 0
M  V30 221 C 5.661209 8.054977 -12.533785 0
M  V30 222 C 1.847051 0.392640 -6.370477 0
M  V30 223 C 1.785730 1.573503 -5.597870 0 CFG=1
M  V30 224 O 0.976101 1.792465 -4.370544 0
M  V30 225 C 2.648376 2.411577 -5.708758 0
M  V30 226 S 3.726987 2.199741 -6.951163 0
M  V30 227 C 2.589894 3.653388 -4.480612 0
M  V30 228 S 3.922811 4.748123 -4.763014 0
M  V30 229 C 1.732796 3.967257 -3.388761 0 CFG=2
M  V30 230 N 1.555029 4.677777 -2.264117 0
M  V30 231 C 0.507009 4.185009 -1.100905 0
M  V30 232 C 0.069575 4.611918 0.143648 0
M  V30 233 O 0.454539 5.619365 0.566881 0
M  V30 234 N -0.855946 3.794383 0.808471 0
M  V30 235 C -1.320247 2.648093 0.343079 0
M  V30 236 N -2.180393 1.950295 1.012268 0
M  V30 237 N -0.904740 2.288210 -0.810308 0
M  V30 238 C -0.065968 3.029798 -1.454803 0
M  V30 239 N 0.364534 2.770662 -2.530042 0
M  V30 240 C 0.897951 2.792292 -3.570843 0 CFG=2
M  V30 END ATOM
M  V30 BEGIN BOND
M  V30 1 2 2 3
M  V30 2 1 2 4 CFG=1
M  V30 3 1 2 5
M  V30 4 1 2 10
M  V30 5 1 5 7
M  V30 6 1 6 7
M  V30 7 1 6 30
M  V30 8 2 7 8
M  V30 9 1 7 9 CFG=1
M  V30 10 1 10 11
M  V30 11 1 12 11 CFG=1
M  V30 12 1 12 13
M  V30 13 1 12 14
M  V30 14 1 13 18
M  V30 15 1 14 15 CFG=3
M  V30 16 1 14 16
M  V30 17 1 16 17 CFG=3
M  V30 18 1 16 18
M  V30 19 1 18 19 CFG=1
M  V30 20 1 19 20
M  V30 21 1 19 29
M  V30 22 2 20 21
M  V30 23 1 21 22
M  V30 24 1 22 23
M  V30 25 2 22 29
M  V30 26 2 23 24
M  V30 27 1 23 25
M  V30 28 1 25 26
M  V30 29 1 26 27
M  V30 30 2 26 28
M  V30 31 1 28 29
M  V30 32 1 31 30 CFG=3
M  V30 33 1 31 32
M  V30 34 1 31 33
M  V30 35 1 32 48
M  V30 36 1 33 34
M  V30 37 2 33 35
M  V30 38 1 35 36
M  V30 39 1 35 37
M  V30 40 1 37 38 CFG=3
M  V30 41 1 37 48
M  V30 42 1 38 39
M  V30 43 1 39 40
M  V30 44 2 39 46
M  V30 45 2 40 41
M  V30 46 1 40 42
M  V30 47 1 42 43
M  V30 48 1 43 44
M  V30 49 2 43 45
M  V30 50 1 45 46
M  V30 51 1 46 47
M  V30 52 1 48 47 CFG=3
M  V30 53 2 49 50
M  V30 54 1 49 51 CFG=1
M  V30 55 1 49 52
M  V30 56 1 49 57
M  V30 57 1 52 54
M  V30 58 1 53 54
M  V30 59 1 53 77
M  V30 60 2 54 55
M  V30 61 1 54 56 CFG=1
M  V30 62 1 57 58
M  V30 63 1 59 58 CFG=1
M  V30 64 1 59 60
M  V30 65 1 59 61
M  V30 66 1 60 65
M  V30 67 1 61 62 CFG=3
M  V30 68 1 61 63
M  V30 69 1 63 64 CFG=3
M  V30 70 1 63 65
M  V30 71 1 65 66 CFG=1
M  V30 72 1 66 67
M  V30 73 1 66 76
M  V30 74 2 67 68
M  V30 75 1 68 69
M  V30 76 1 69 70
M  V30 77 2 69 76
M  V30 78 2 70 71
M  V30 79 1 70 72
M  V30 80 1 72 73
M  V30 81 1 73 74
M  V30 82 2 73 75
M  V30 83 1 75 76
M  V30 84 1 78 77 CFG=3
M  V30 85 1 78 79
M  V30 86 1 78 80
M  V30 87 1 79 95
M  V30 88 1 80 81
M  V30 89 2 80 82
M  V30 90 1 82 83
M  V30 91 1 82 84
M  V30 92 1 84 85 CFG=1
M  V30 93 1 84 95
M  V30 94 1 85 86
M  V30 95 1 86 87
M  V30 96 2 86 93
M  V30 97 2 87 88
M  V30 98 1 87 89
M  V30 99 1 89 90
M  V30 100 1 90 91
M  V30 101 2 90 92
M  V30 102 1 92 93
M  V30 103 1 93 94
M  V30 104 1 95 94 CFG=3
M  V30 105 1 96 98
M  V30 106 1 96 99
M  V30 107 1 97 98
M  V30 108 1 97 99
M  V30 109 2 100 101
M  V30 110 1 100 102 CFG=3
M  V30 111 1 100 103
M  V30 112 1 100 108
M  V30 113 1 103 105
M  V30 114 1 104 105
M  V30 115 1 104 128
M  V30 116 2 105 106
M  V30 117 1 105 107 CFG=3
M  V30 118 1 108 109
M  V30 119 1 110 109 CFG=1
M  V30 120 1 110 111
M  V30 121 1 110 112
M  V30 122 1 111 116
M  V30 123 1 112 113 CFG=3
M  V30 124 1 112 114
M  V30 125 1 114 115 CFG=3
M  V30 126 1 114 116
M  V30 127 1 116 117 CFG=1
M  V30 128 1 117 118
M  V30 129 1 117 127
M  V30 130 2 118 119
M  V30 131 1 119 120
M  V30 132 1 120 121
M  V30 133 2 120 127
M  V30 134 2 121 122
M  V30 135 1 121 123
M  V30 136 1 123 124
M  V30 137 1 124 125
M  V30 138 2 124 126
M  V30 139 1 126 127
M  V30 140 1 129 128 CFG=1
M  V30 141 1 129 130
M  V30 142 1 129 131
M  V30 143 1 130 146
M  V30 144 1 131 132
M  V30 145 2 131 133
M  V30 146 1 133 134
M  V30 147 1 133 135
M  V30 148 1 135 136 CFG=1
M  V30 149 1 135 146
M  V30 150 1 136 137
M  V30 151 1 137 138
M  V30 152 2 137 144
M  V30 153 2 138 139
M  V30 154 1 138 140
M  V30 155 1 140 141
M  V30 156 1 141 142
M  V30 157 2 141 143
M  V30 158 1 143 144
M  V30 159 1 144 145
M  V30 160 1 146 145 CFG=1
M  V30 161 2 147 148
M  V30 162 1 147 149 CFG=3
M  V30 163 1 147 150
M  V30 164 1 147 155
M  V30 165 1 150 152
M  V30 166 1 151 152
M  V30 167 1 151 175
M  V30 168 2 152 153
M  V30 169 1 152 154 CFG=1
M  V30 170 1 155 156
M  V30 171 1 157 156 CFG=1
M  V30 172 1 157 158
M  V30 173 1 157 159
M  V30 174 1 158 163
M  V30 175 1 159 160 CFG=3
M  V30 176 1 159 161
M  V30 177 1 161 162 CFG=3
M  V30 178 1 161 163
M  V30 179 1 163 164 CFG=1
M  V30 180 1 164 165
M  V30 181 1 164 174
M  V30 182 2 165 166
M  V30 183 1 166 167
M  V30 184 1 167 168
M  V30 185 2 167 174
M  V30 186 2 168 169
M  V30 187 1 168 170
M  V30 188 1 170 171
M  V30 189 1 171 172
M  V30 190 2 171 173
M  V30 191 1 173 174
M  V30 192 1 176 175 CFG=3
M  V30 193 1 176 177
M  V30 194 1 176 178
M  V30 195 1 177 193
M  V30 196 1 178 179
M  V30 197 2 178 180
M  V30 198 1 180 181
M  V30 199 1 180 182
M  V30 200 1 182 183 CFG=1
M  V30 201 1 182 193
M  V30 202 1 183 184
M  V30 203 1 184 185
M  V30 204 2 184 191
M  V30 205 2 185 186
M  V30 206 1 185 187
M  V30 207 1 187 188
M  V30 208 1 188 189
M  V30 209 2 188 190
M  V30 210 1 190 191
M  V30 211 1 191 192
M  V30 212 1 193 192 CFG=1
M  V30 213 2 194 195
M  V30 214 1 194 196 CFG=3
M  V30 215 1 194 197
M  V30 216 1 194 202
M  V30 217 1 197 199
M  V30 218 1 198 199
M  V30 219 1 198 222
M  V30 220 2 199 200
M  V30 221 1 199 201 CFG=1
M  V30 222 1 202 203
M  V30 223 1 204 203 CFG=1
M  V30 224 1 204 205
M  V30 225 1 204 206
M  V30 226 1 205 210
M  V30 227 1 206 207 CFG=3
M  V30 228 1 206 208
M  V30 229 1 208 209 CFG=3
M  V30 230 1 208 210
M  V30 231 1 210 211 CFG=1
M  V30 232 1 211 212
M  V30 233 1 211 221
M  V30 234 2 212 213
M  V30 235 1 213 214
M  V30 236 1 214 215
M  V30 237 2 214 221
M  V30 238 2 215 216
M  V30 239 1 215 217
M  V30 240 1 217 218
M  V30 241 1 218 219
M  V30 242 2 218 220
M  V30 243 1 220 221
M  V30 244 1 223 222 CFG=1
M  V30 245 1 223 224
M  V30 246 1 223 225
M  V30 247 1 224 240
M  V30 248 1 225 226
M  V30 249 2 225 227
M  V30 250 1 227 228
M  V30 251 1 227 229
M  V30 252 1 229 230 CFG=1
M  V30 253 1 229 240
M  V30 254 1 230 231
M  V30 255 1 231 232
M  V30 256 2 231 238
M  V30 257 2 232 233
M  V30 258 1 232 234
M  V30 259 1 234 235
M  V30 260 1 235 236
M  V30 261 2 235 237
M  V30 262 1 237 238
M  V30 263 1 238 239
M  V30 264 1 240 239 CFG=1
M  V30 END BOND
M  V30 BEGIN COLLECTION
M  V30 MDLV30/STEABS ATOMS=(0)
M  V30 END COLLECTION
M  V30 END CTAB
M  END
>  <model_server_result.job_id>  (3) 
U0KLM0PGsfydqzu864nncQ

>  <model_server_result.datetime_utc>  (3) 
2024-03-15 02:27:34

>  <model_server_result.server_version>  (3) 
0.9.11

>  <model_server_result.query_name>  (3) 
ligand

>  <model_server_result.source_id>  (3) 
pdb-bcif

>  <model_server_result.entry_id>  (3) 
7e5z

>  <model_server_params.name>  (3) 
atom_site

>  <model_server_params.value>  (3) 
{"label_asym_id":"C","auth_seq_id":1000}

>  <model_server_stats.io_time_ms>  (3) 
10

>  <model_server_stats.parse_time_ms>  (3) 
47

>  <model_server_stats.create_model_time_ms>  (3) 
21

>  <model_server_stats.query_time_ms>  (3) 
205

>  <model_server_stats.encode_time_ms>  (3) 
0

>  <model_server_stats.element_count>  (3) 
1

$$$$
W
     RDKit          3D

  0  0  0  0  0  0  0  0  0  0999 V3000
M  V30 BEGIN CTAB
M  V30 COUNTS 240 264 0 0 0
M  V30 BEGIN ATOM
M  V30 1 W -13.732451 16.112486 14.818843 0 VAL=-1
M  V30 2 P -27.128859 12.462799 14.331972 0 CFG=2
M  V30 3 O -26.403404 13.710093 14.342563 0
M  V30 4 O -28.430435 12.480145 14.858315 0
M  V30 5 O -26.310528 11.243653 14.758956 0
M  V30 6 O -25.213411 12.561378 16.238747 0
M  V30 7 P -25.729868 11.129090 16.058710 0 CFG=1
M  V30 8 O -26.750795 10.810402 17.075174 0
M  V30 9 O -24.544500 10.201256 15.906669 0
M  V30 10 O -27.168579 12.018311 12.794399 0
M  V30 11 C -26.512651 12.239944 11.929755 0
M  V30 12 C -26.814289 11.619950 10.514648 0 CFG=2
M  V30 13 O -28.169420 10.939299 10.563672 0
M  V30 14 C -25.805191 10.707438 10.086507 0 CFG=2
M  V30 15 O -25.307192 11.111598 8.968572 0
M  V30 16 C -26.546917 9.330467 9.967389 0 CFG=2
M  V30 17 O -26.251196 8.769613 8.667946 0
M  V30 18 C -28.060497 9.565324 9.992181 0 CFG=1
M  V30 19 N -28.708399 8.592354 10.897461 0
M  V30 20 C -28.568356 8.434843 12.222748 0
M  V30 21 N -29.381479 7.415933 12.611615 0
M  V30 22 C -30.020754 6.880921 11.562885 0
M  V30 23 C -30.950739 5.836805 11.336249 0
M  V30 24 O -31.476736 5.071023 12.064268 0
M  V30 25 N -31.381254 5.544748 10.135022 0
M  V30 26 C -30.948679 6.203999 9.157804 0
M  V30 27 N -31.382380 5.926378 7.903595 0
M  V30 28 N -29.985662 7.336985 9.331805 0
M  V30 29 C -29.589926 7.633780 10.470614 0
M  V30 30 C -25.906601 13.516396 15.794145 0
M  V30 31 C -25.435904 14.701180 14.910541 0 CFG=1
M  V30 32 O -25.167751 15.669545 15.359607 0
M  V30 33 C -25.200993 14.203988 13.813247 0
M  V30 34 S -26.653360 13.687258 13.033187 0
M  V30 35 C -23.801420 14.756643 13.270647 0
M  V30 36 S -23.255032 13.990417 11.838593 0
M  V30 37 C -23.013519 15.928393 13.840854 0 CFG=2
M  V30 38 N -21.988810 16.692701 14.051163 0
M  V30 39 C -21.871288 17.699980 15.215621 0
M  V30 40 C -20.843355 18.464088 15.572507 0
M  V30 41 O -19.877756 18.505119 14.939118 0
M  V30 42 N -21.063768 19.156767 16.726543 0
M  V30 43 C -22.206675 19.138468 17.562723 0
M  V30 44 N -22.112980 19.829992 18.600481 0
M  V30 45 N -23.198311 18.413788 17.181589 0
M  V30 46 C -23.075592 17.737156 16.027628 0
M  V30 47 N -24.026016 17.096111 15.651689 0
M  V30 48 C -24.266594 16.491928 14.796563 0 CFG=2
M  V30 49 P 5.992133 -9.098780 3.709256 0 CFG=1
M  V30 50 O 5.431672 -7.802430 4.190097 0
M  V30 51 O 5.748548 -9.451349 2.277830 0
M  V30 52 O 7.415257 -9.126874 4.110387 0
M  V30 53 O 7.610970 -7.698316 2.485963 0
M  V30 54 P 8.504071 -8.450856 3.330332 0 CFG=1
M  V30 55 O 9.355242 -7.521322 4.169592 0
M  V30 56 O 9.295116 -9.476322 2.554112 0
M  V30 57 O 5.435294 -10.380029 4.634885 0
M  V30 58 C 5.585445 -11.373618 4.610865 0
M  V30 59 C 4.565799 -12.276633 5.448013 0 CFG=1
M  V30 60 O 5.136279 -13.615602 5.533021 0
M  V30 61 C 4.447331 -11.761257 6.856055 0 CFG=1
M  V30 62 O 3.087747 -11.517956 7.187900 0
M  V30 63 C 4.992563 -12.918762 7.765270 0 CFG=1
M  V30 64 O 4.065661 -13.340475 8.803797 0
M  V30 65 C 5.207940 -14.048452 6.832430 0 CFG=2
M  V30 66 N 6.501973 -14.582775 7.130011 0
M  V30 67 C 7.627766 -14.079384 6.702147 0
M  V30 68 N 8.644878 -14.865079 7.083107 0
M  V30 69 C 8.122767 -15.883023 7.782741 0
M  V30 70 C 8.682843 -16.981831 8.431151 0
M  V30 71 O 9.914458 -17.293339 8.522909 0
M  V30 72 N 7.872663 -17.911367 9.126478 0
M  V30 73 C 6.553870 -17.672443 9.084991 0
M  V30 74 N 5.917405 -18.661911 9.752739 0
M  V30 75 N 5.954963 -16.596586 8.474418 0
M  V30 76 C 6.735207 -15.694480 7.784204 0
M  V30 77 C 6.950389 -6.957576 1.851643 0
M  V30 78 C 5.625347 -6.549164 2.219347 0 CFG=1
M  V30 79 O 4.640503 -7.411854 1.924754 0
M  V30 80 C 5.746813 -6.270872 3.577031 0
M  V30 81 S 7.046632 -5.365752 4.050726 0
M  V30 82 C 4.318257 -6.455719 4.346345 0
M  V30 83 S 3.904042 -4.971875 5.160391 0
M  V30 84 C 3.385879 -7.524869 4.270807 0 CFG=1
M  V30 85 N 2.278171 -8.239952 4.583765 0
M  V30 86 C 1.721982 -9.566037 3.778030 0
M  V30 87 C 0.862067 -10.626350 3.925035 0
M  V30 88 O 0.134593 -10.634170 4.777928 0
M  V30 89 N 0.902267 -11.645944 2.934154 0
M  V30 90 C 1.711180 -11.683089 1.886134 0
M  V30 91 N 1.819883 -12.643364 1.024375 0
M  V30 92 N 2.441480 -10.605868 1.767851 0
M  V30 93 C 2.367008 -9.619058 2.589385 0
M  V30 94 N 2.999907 -8.578685 2.582603 0
M  V30 95 C 3.499984 -7.548936 2.652032 0 CFG=2
M  V30 96 Fe -1.459130 3.312285 1.070237 0 VAL=2
M  V30 97 Fe 1.411459 3.190714 -0.023448 0 VAL=2
M  V30 98 S 0.353660 1.989217 1.839290 0
M  V30 99 S -0.691546 3.619660 -1.178874 0
M  V30 100 P 10.991086 -0.302836 -2.468351 0 CFG=1
M  V30 101 O 10.272578 -1.060467 -3.477057 0
M  V30 102 O 10.185281 0.703929 -1.752236 0
M  V30 103 O 11.698876 -1.178480 -1.412058 0
M  V30 104 O 12.363582 -3.473826 -1.987047 0
M  V30 105 P 12.893548 -2.139982 -1.241316 0 CFG=2
M  V30 106 O 12.989366 -2.591033 0.193104 0
M  V30 107 O 14.121678 -1.762539 -1.876081 0
M  V30 108 O 12.166795 0.536829 -3.203573 0
M  V30 109 C 13.098466 0.490392 -3.413610 0
M  V30 110 C 14.042815 1.631089 -3.882671 0 CFG=1
M  V30 111 O 13.340924 2.471021 -4.845769 0
M  V30 112 C 14.519528 2.509736 -2.773280 0 CFG=1
M  V30 113 O 15.879270 2.843328 -2.828356 0
M  V30 114 C 13.570973 3.743850 -2.909156 0 CFG=1
M  V30 115 O 14.073211 4.696755 -2.203223 0
M  V30 116 C 13.450574 3.845491 -4.400640 0 CFG=2
M  V30 117 N 12.194741 4.569654 -4.722236 0
M  V30 118 C 10.949008 4.167500 -4.630027 0
M  V30 119 N 10.115237 5.192477 -5.044360 0
M  V30 120 C 10.837234 6.196651 -5.367468 0
M  V30 121 C 10.527497 7.484838 -5.873212 0
M  V30 122 O 9.333131 7.933896 -6.117521 0
M  V30 123 N 11.557473 8.404462 -6.097926 0
M  V30 124 C 12.835044 8.046966 -5.847537 0
M  V30 125 N 13.739459 8.953777 -6.035248 0
M  V30 126 N 13.233603 6.740833 -5.369051 0
M  V30 127 C 12.185153 5.863263 -5.179247 0
M  V30 128 C 12.058208 -3.308125 -3.383487 0
M  V30 129 C 11.409060 -4.675758 -3.354220 0 CFG=1
M  V30 130 O 12.365905 -5.687437 -3.533549 0
M  V30 131 C 10.652223 -4.870823 -2.150886 0
M  V30 132 S 9.144966 -4.145869 -1.958660 0
M  V30 133 C 11.241635 -5.990676 -1.267265 0
M  V30 134 S 10.253741 -6.260189 0.255764 0
M  V30 135 C 12.367965 -6.805071 -1.419896 0 CFG=2
M  V30 136 N 13.292573 -7.297278 -0.429513 0
M  V30 137 C 14.726644 -7.205503 -0.577397 0
M  V30 138 C 15.744267 -7.417686 0.179740 0
M  V30 139 O 15.597161 -7.972692 1.252711 0
M  V30 140 N 16.928993 -7.031923 -0.392885 0
M  V30 141 C 17.058329 -6.441880 -1.563516 0
M  V30 142 N 18.185472 -6.052711 -2.050400 0
M  V30 143 N 16.017992 -6.306722 -2.267884 0
M  V30 144 C 14.895465 -6.733690 -1.785912 0
M  V30 145 N 13.762305 -6.633672 -2.324909 0
M  V30 146 C 12.731277 -6.718845 -2.694139 0 CFG=2
M  V30 147 P 6.453466 -8.438669 4.598253 0 CFG=1
M  V30 148 O 7.336531 -9.480116 5.164462 0
M  V30 149 O 7.077198 -7.052263 4.574696 0
M  V30 150 O 5.705340 -8.608819 3.226940 0
M  V30 151 O 3.337198 -8.509774 3.192270 0
M  V30 152 P 4.571007 -9.408807 2.737512 0 CFG=2
M  V30 153 O 4.363857 -10.746425 3.293730 0
M  V30 154 O 4.614735 -9.346514 1.252770 0
M  V30 155 O 5.325893 -8.524676 5.509532 0
M  V30 156 C 4.476969 -7.735746 5.033535 0
M  V30 157 C 3.934436 -8.809431 5.395818 0 CFG=1
M  V30 158 O 4.825042 -9.649766 5.230932 0
M  V30 159 C 3.220585 -9.186113 6.530504 0 CFG=1
M  V30 160 O 2.094303 -9.368113 6.698192 0
M  V30 161 C 4.190358 -10.183791 7.303918 0 CFG=1
M  V30 162 O 3.669992 -10.616112 8.309793 0
M  V30 163 C 4.888900 -10.666400 6.377434 0 CFG=2
M  V30 164 N 6.099382 -11.291862 6.351888 0
M  V30 165 C 6.963768 -11.364104 5.301114 0
M  V30 166 N 8.014601 -12.195967 5.601135 0
M  V30 167 C 7.870013 -12.709615 6.840494 0
M  V30 168 C 8.616780 -13.679291 7.706095 0
M  V30 169 O 9.639157 -14.266477 7.313016 0
M  V30 170 N 8.130266 -13.928900 8.971518 0
M  V30 171 C 6.979103 -13.269002 9.392008 0
M  V30 172 N 6.680768 -13.618080 10.619230 0
M  V30 173 N 6.243974 -12.377954 8.636180 0
M  V30 174 C 6.654689 -12.085298 7.324865 0
M  V30 175 C 2.915624 -7.880596 3.335498 0
M  V30 176 C 2.133445 -7.030415 4.233640 0 CFG=2
M  V30 177 O 0.990188 -6.444366 4.077920 0
M  V30 178 C 3.135152 -6.318444 4.904101 0
M  V30 179 S 4.674374 -6.942293 5.038526 0
M  V30 180 C 2.423561 -5.370717 5.940249 0
M  V30 181 S 2.471208 -5.996984 7.605003 0
M  V30 182 C 1.375439 -4.387675 5.527119 0 CFG=2
M  V30 183 N 0.466882 -3.520355 6.267076 0
M  V30 184 C -0.972157 -3.149189 5.823906 0
M  V30 185 C -1.933985 -2.280959 6.266788 0
M  V30 186 O -1.806377 -1.558298 7.149390 0
M  V30 187 N -3.109642 -2.245422 5.581160 0
M  V30 188 C -3.422184 -3.029716 4.521939 0
M  V30 189 N -4.509619 -2.803929 4.042099 0
M  V30 190 N -2.495499 -3.849063 4.214867 0
M  V30 191 C -1.348891 -4.009460 4.782608 0
M  V30 192 N -0.345298 -4.934710 4.491203 0
M  V30 193 C 0.509995 -5.490050 4.658446 0 CFG=1
M  V30 194 P 13.114129 -0.624410 -6.362852 0 CFG=1
M  V30 195 O 13.579110 -2.015063 -6.693809 0
M  V30 196 O 11.912400 -0.161892 -7.060749 0
M  V30 197 O 12.799235 -0.484469 -4.962529 0
M  V30 198 O 14.580232 0.516539 -4.055998 0
M  V30 199 P 13.706719 -0.757663 -3.919034 0 CFG=1
M  V30 200 O 12.852321 -0.781551 -2.662850 0
M  V30 201 O 14.629508 -1.944292 -4.075740 0
M  V30 202 O 14.323140 0.376126 -6.574420 0
M  V30 203 C 14.732356 0.937122 -5.587844 0
M  V30 204 C 15.667001 1.740879 -6.315392 0 CFG=1
M  V30 205 O 15.018712 2.784327 -7.115192 0
M  V30 206 C 16.828117 2.246786 -5.738838 0 CFG=1
M  V30 207 O 17.992794 1.658278 -5.947762 0
M  V30 208 C 16.791319 3.807835 -5.983070 0 CFG=1
M  V30 209 O 18.080988 4.330879 -6.188912 0
M  V30 210 C 15.888885 3.975478 -7.100102 0 CFG=2
M  V30 211 N 15.051364 5.201644 -6.930243 0
M  V30 212 C 14.297627 5.547272 -5.877272 0
M  V30 213 N 13.624852 6.725352 -6.168417 0
M  V30 214 C 13.993306 7.094118 -7.394128 0
M  V30 215 C 13.661304 8.172647 -8.238035 0
M  V30 216 O 12.827674 9.100246 -7.930908 0
M  V30 217 N 14.279113 8.273060 -9.538233 0
M  V30 218 C 15.127902 7.353400 -9.923457 0
M  V30 219 N 15.603349 7.610068 -11.177613 0
M  V30 220 N 15.512767 6.214058 -9.141742 0
M  V30 221 C 14.917487 6.130577 -7.894080 0
M  V30 222 C 15.153016 1.202869 -4.732897 0
M  V30 223 C 15.060468 2.208179 -5.828170 0 CFG=2
M  V30 224 O 15.375716 3.414319 -5.722744 0
M  V30 225 C 13.741374 1.907334 -6.301472 0
M  V30 226 S 12.793937 0.653731 -5.822189 0
M  V30 227 C 13.631375 2.852052 -7.563109 0
M  V30 228 S 14.219945 2.072067 -8.989767 0
M  V30 229 C 13.524707 4.372186 -7.422442 0 CFG=2
M  V30 230 N 13.337464 5.635261 -7.874441 0
M  V30 231 C 13.790004 6.935584 -7.113513 0
M  V30 232 C 13.533257 8.243691 -7.170254 0
M  V30 233 O 12.858598 8.644904 -8.019792 0
M  V30 234 N 14.153691 9.058301 -6.163326 0
M  V30 235 C 14.941285 8.673219 -5.204422 0
M  V30 236 N 15.435603 9.527161 -4.337073 0
M  V30 237 N 15.230338 7.402433 -5.206820 0
M  V30 238 C 14.732423 6.636992 -6.128769 0
M  V30 239 N 14.888869 5.449831 -6.243895 0
M  V30 240 C 14.991340 4.430451 -6.568437 0 CFG=1
M  V30 END ATOM
M  V30 BEGIN BOND
M  V30 1 2 2 3
M  V30 2 1 2 4 CFG=3
M  V30 3 1 2 5
M  V30 4 1 2 10
M  V30 5 1 5 7
M  V30 6 1 6 7
M  V30 7 1 6 30
M  V30 8 2 7 8
M  V30 9 1 7 9 CFG=3
M  V30 10 1 10 11
M  V30 11 1 12 11 CFG=3
M  V30 12 1 12 13
M  V30 13 1 12 14
M  V30 14 1 13 18
M  V30 15 1 14 15 CFG=1
M  V30 16 1 14 16
M  V30 17 1 16 17 CFG=1
M  V30 18 1 16 18
M  V30 19 1 18 19 CFG=3
M  V30 20 1 19 20
M  V30 21 1 19 29
M  V30 22 2 20 21
M  V30 23 1 21 22
M  V30 24 1 22 23
M  V30 25 2 22 29
M  V30 26 2 23 24
M  V30 27 1 23 25
M  V30 28 1 25 26
M  V30 29 1 26 27
M  V30 30 2 26 28
M  V30 31 1 28 29
M  V30 32 1 31 30 CFG=1
M  V30 33 1 31 32
M  V30 34 1 31 33
M  V30 35 1 32 48
M  V30 36 1 33 34
M  V30 37 2 33 35
M  V30 38 1 35 36
M  V30 39 1 35 37
M  V30 40 1 37 38 CFG=1
M  V30 41 1 37 48
M  V30 42 1 38 39
M  V30 43 1 39 40
M  V30 44 2 39 46
M  V30 45 2 40 41
M  V30 46 1 40 42
M  V30 47 1 42 43
M  V30 48 1 43 44
M  V30 49 2 43 45
M  V30 50 1 45 46
M  V30 51 1 46 47
M  V30 52 1 48 47 CFG=1
M  V30 53 2 49 50
M  V30 54 1 49 51 CFG=3
M  V30 55 1 49 52
M  V30 56 1 49 57
M  V30 57 1 52 54
M  V30 58 1 53 54
M  V30 59 1 53 77
M  V30 60 2 54 55
M  V30 61 1 54 56 CFG=3
M  V30 62 1 57 58
M  V30 63 1 59 58 CFG=3
M  V30 64 1 59 60
M  V30 65 1 59 61
M  V30 66 1 60 65
M  V30 67 1 61 62 CFG=1
M  V30 68 1 61 63
M  V30 69 1 63 64 CFG=1
M  V30 70 1 63 65
M  V30 71 1 65 66 CFG=1
M  V30 72 1 66 67
M  V30 73 1 66 76
M  V30 74 2 67 68
M  V30 75 1 68 69
M  V30 76 1 69 70
M  V30 77 2 69 76
M  V30 78 2 70 71
M  V30 79 1 70 72
M  V30 80 1 72 73
M  V30 81 1 73 74
M  V30 82 2 73 75
M  V30 83 1 75 76
M  V30 84 1 78 77 CFG=1
M  V30 85 1 78 79
M  V30 86 1 78 80
M  V30 87 1 79 95
M  V30 88 1 80 81
M  V30 89 2 80 82
M  V30 90 1 82 83
M  V30 91 1 82 84
M  V30 92 1 84 85 CFG=1
M  V30 93 1 84 95
M  V30 94 1 85 86
M  V30 95 1 86 87
M  V30 96 2 86 93
M  V30 97 2 87 88
M  V30 98 1 87 89
M  V30 99 1 89 90
M  V30 100 1 90 91
M  V30 101 2 90 92
M  V30 102 1 92 93
M  V30 103 1 93 94
M  V30 104 1 95 94 CFG=1
M  V30 105 1 96 98
M  V30 106 1 96 99
M  V30 107 1 97 98
M  V30 108 1 97 99
M  V30 109 2 100 101
M  V30 110 1 100 102 CFG=1
M  V30 111 1 100 103
M  V30 112 1 100 108
M  V30 113 1 103 105
M  V30 114 1 104 105
M  V30 115 1 104 128
M  V30 116 2 105 106
M  V30 117 1 105 107 CFG=1
M  V30 118 1 108 109
M  V30 119 1 110 109 CFG=1
M  V30 120 1 110 111
M  V30 121 1 110 112
M  V30 122 1 111 116
M  V30 123 1 112 113 CFG=3
M  V30 124 1 112 114
M  V30 125 1 114 115 CFG=3
M  V30 126 1 114 116
M  V30 127 1 116 117 CFG=1
M  V30 128 1 117 118
M  V30 129 1 117 127
M  V30 130 2 118 119
M  V30 131 1 119 120
M  V30 132 1 120 121
M  V30 133 2 120 127
M  V30 134 2 121 122
M  V30 135 1 121 123
M  V30 136 1 123 124
M  V30 137 1 124 125
M  V30 138 2 124 126
M  V30 139 1 126 127
M  V30 140 1 129 128 CFG=1
M  V30 141 1 129 130
M  V30 142 1 129 131
M  V30 143 1 130 146
M  V30 144 1 131 132
M  V30 145 2 131 133
M  V30 146 1 133 134
M  V30 147 1 133 135
M  V30 148 1 135 136 CFG=1
M  V30 149 1 135 146
M  V30 150 1 136 137
M  V30 151 1 137 138
M  V30 152 2 137 144
M  V30 153 2 138 139
M  V30 154 1 138 140
M  V30 155 1 140 141
M  V30 156 1 141 142
M  V30 157 2 141 143
M  V30 158 1 143 144
M  V30 159 1 144 145
M  V30 160 1 146 145 CFG=1
M  V30 161 2 147 148
M  V30 162 1 147 149 CFG=3
M  V30 163 1 147 150
M  V30 164 1 147 155
M  V30 165 1 150 152
M  V30 166 1 151 152
M  V30 167 1 151 175
M  V30 168 2 152 153
M  V30 169 1 152 154 CFG=1
M  V30 170 1 155 156
M  V30 171 1 157 156 CFG=1
M  V30 172 1 157 158
M  V30 173 1 157 159
M  V30 174 1 158 163
M  V30 175 1 159 160 CFG=3
M  V30 176 1 159 161
M  V30 177 1 161 162 CFG=3
M  V30 178 1 161 163
M  V30 179 1 163 164 CFG=1
M  V30 180 1 164 165
M  V30 181 1 164 174
M  V30 182 2 165 166
M  V30 183 1 166 167
M  V30 184 1 167 168
M  V30 185 2 167 174
M  V30 186 2 168 169
M  V30 187 1 168 170
M  V30 188 1 170 171
M  V30 189 1 171 172
M  V30 190 2 171 173
M  V30 191 1 173 174
M  V30 192 1 176 175 CFG=1
M  V30 193 1 176 177
M  V30 194 1 176 178
M  V30 195 1 177 193
M  V30 196 1 178 179
M  V30 197 2 178 180
M  V30 198 1 180 181
M  V30 199 1 180 182
M  V30 200 1 182 183 CFG=1
M  V30 201 1 182 193
M  V30 202 1 183 184
M  V30 203 1 184 185
M  V30 204 2 184 191
M  V30 205 2 185 186
M  V30 206 1 185 187
M  V30 207 1 187 188
M  V30 208 1 188 189
M  V30 209 2 188 190
M  V30 210 1 190 191
M  V30 211 1 191 192
M  V30 212 1 193 192 CFG=1
M  V30 213 2 194 195
M  V30 214 1 194 196 CFG=3
M  V30 215 1 194 197
M  V30 216 1 194 202
M  V30 217 1 197 199
M  V30 218 1 198 199
M  V30 219 1 198 222
M  V30 220 2 199 200
M  V30 221 1 199 201 CFG=3
M  V30 222 1 202 203
M  V30 223 1 204 203 CFG=1
M  V30 224 1 204 205
M  V30 225 1 204 206
M  V30 226 1 205 210
M  V30 227 1 206 207 CFG=3
M  V30 228 1 206 208
M  V30 229 1 208 209 CFG=3
M  V30 230 1 208 210
M  V30 231 1 210 211 CFG=1
M  V30 232 1 211 212
M  V30 233 1 211 221
M  V30 234 2 212 213
M  V30 235 1 213 214
M  V30 236 1 214 215
M  V30 237 2 214 221
M  V30 238 2 215 216
M  V30 239 1 215 217
M  V30 240 1 217 218
M  V30 241 1 218 219
M  V30 242 2 218 220
M  V30 243 1 220 221
M  V30 244 1 223 222 CFG=3
M  V30 245 1 223 224
M  V30 246 1 223 225
M  V30 247 1 224 240
M  V30 248 1 225 226
M  V30 249 2 225 227
M  V30 250 1 227 228
M  V30 251 1 227 229
M  V30 252 1 229 230 CFG=3
M  V30 253 1 229 240
M  V30 254 1 230 231
M  V30 255 1 231 232
M  V30 256 2 231 238
M  V30 257 2 232 233
M  V30 258 1 232 234
M  V30 259 1 234 235
M  V30 260 1 235 236
M  V30 261 2 235 237
M  V30 262 1 237 238
M  V30 263 1 238 239
M  V30 264 1 240 239 CFG=3
M  V30 END BOND
M  V30 BEGIN COLLECTION
M  V30 MDLV30/STEABS ATOMS=(0)
M  V30 END COLLECTION
M  V30 END CTAB
M  END
>  <model_server_result.job_id>  (4) 
U0KLM0PGsfydqzu864nncQ

>  <model_server_result.datetime_utc>  (4) 
2024-03-15 02:27:34

>  <model_server_result.server_version>  (4) 
0.9.11

>  <model_server_result.query_name>  (4) 
ligand

>  <model_server_result.source_id>  (4) 
pdb-bcif

>  <model_server_result.entry_id>  (4) 
7e5z

>  <model_server_params.name>  (4) 
atom_site

>  <model_server_params.value>  (4) 
{"label_asym_id":"C","auth_seq_id":1000}

>  <model_server_stats.io_time_ms>  (4) 
10

>  <model_server_stats.parse_time_ms>  (4) 
47

>  <model_server_stats.create_model_time_ms>  (4) 
21

>  <model_server_stats.query_time_ms>  (4) 
205

>  <model_server_stats.encode_time_ms>  (4) 
0

>  <model_server_stats.element_count>  (4) 
1

$$$$
W
     RDKit          3D

  0  0  0  0  0  0  0  0  0  0999 V3000
M  V30 BEGIN CTAB
M  V30 COUNTS 240 264 0 0 0
M  V30 BEGIN ATOM
M  V30 1 W -10.132379 -15.269724 -0.909146 0 VAL=-1
M  V30 2 P -7.983662 11.213217 -7.102073 0 CFG=2
M  V30 3 O -8.911744 11.405702 -8.179430 0
M  V30 4 O -7.247056 12.449445 -6.623086 0
M  V30 5 O -6.884551 10.078828 -7.435020 0
M  V30 6 O -5.724987 8.246516 -8.536739 0
M  V30 7 P -7.224129 8.617989 -8.024412 0 CFG=2
M  V30 8 O -8.036659 8.678297 -9.190815 0
M  V30 9 O -7.618622 7.805227 -6.891747 0
M  V30 10 O -8.777869 10.580981 -5.862410 0
M  V30 11 C -8.744145 10.425655 -4.917068 0
M  V30 12 C -9.730736 9.708079 -3.939937 0 CFG=1
M  V30 13 O -10.978186 10.427129 -3.941401 0
M  V30 14 C -9.969992 8.329017 -4.389565 0 CFG=1
M  V30 15 O -9.957829 7.420492 -3.235478 0
M  V30 16 C -11.324015 8.483399 -5.074208 0 CFG=1
M  V30 17 O -11.935667 7.211573 -5.053824 0
M  V30 18 C -12.003111 9.527673 -4.279970 0 CFG=2
M  V30 19 N -12.873972 10.276120 -5.106743 0
M  V30 20 C -12.613783 10.656451 -6.330247 0
M  V30 21 N -13.623212 11.372682 -6.803640 0
M  V30 22 C -14.570739 11.471084 -5.828223 0
M  V30 23 C -15.796642 12.106687 -5.680182 0
M  V30 24 O -16.350628 12.791142 -6.531182 0
M  V30 25 N -16.492365 11.982430 -4.503231 0
M  V30 26 C -16.001247 11.275245 -3.475472 0
M  V30 27 N -16.714375 11.173725 -2.333879 0
M  V30 28 N -14.763762 10.605433 -3.530689 0
M  V30 29 C -14.067656 10.739333 -4.713526 0
M  V30 30 C -4.682022 7.936470 -8.008802 0
M  V30 31 C -3.702020 7.450262 -8.978127 0 CFG=1
M  V30 32 O -4.154767 7.370791 -10.197708 0
M  V30 33 C -2.543618 8.120299 -8.889694 0
M  V30 34 S -1.883877 8.483686 -7.373394 0
M  V30 35 C -1.744544 8.231806 -10.299725 0
M  V30 36 S -0.093733 8.712452 -10.235353 0
M  V30 37 C -2.288669 7.977446 -11.672104 0 CFG=2
M  V30 38 N -2.143611 8.698224 -12.972641 0
M  V30 39 C -3.297196 9.380945 -13.692572 0
M  V30 40 C -3.453269 10.098167 -14.863602 0
M  V30 41 O -2.700154 10.132744 -15.678684 0
M  V30 42 N -4.665871 10.752186 -14.984114 0
M  V30 43 C -5.617943 10.785297 -14.125679 0
M  V30 44 N -6.615711 11.440332 -14.263941 0
M  V30 45 N -5.409536 9.993105 -13.043314 0
M  V30 46 C -4.255270 9.296334 -12.957861 0
M  V30 47 N -3.948492 8.537486 -12.042486 0
M  V30 48 C -3.302218 7.632796 -11.333891 0 CFG=2
M  V30 49 P -8.771646 6.600858 -6.632252 0 CFG=1
M  V30 50 O -9.248811 6.134312 -7.959374 0
M  V30 51 O -8.384527 5.534350 -5.629943 0
M  V30 52 O -7.722617 7.591710 -6.835845 0
M  V30 53 O -6.277246 6.789651 -5.400746 0
M  V30 54 P -6.822140 8.124723 -5.812745 0 CFG=2
M  V30 55 O -7.614587 8.774923 -4.707353 0
M  V30 56 O -5.621237 8.946554 -6.401934 0
M  V30 57 O -9.899997 7.610453 -6.011488 0
M  V30 58 C -9.857217 8.158349 -5.198150 0
M  V30 59 C -11.255380 8.467505 -4.524586 0 CFG=1
M  V30 60 O -11.615789 9.763705 -4.706750 0
M  V30 61 C -12.319022 7.540810 -5.147198 0 CFG=1
M  V30 62 O -13.026201 6.920068 -4.089628 0
M  V30 63 C -13.157453 8.499472 -5.996213 0 CFG=1
M  V30 64 O -14.573329 8.144195 -5.819832 0
M  V30 65 C -12.905916 9.878976 -5.296568 0 CFG=2
M  V30 66 N -12.923469 10.901267 -6.304688 0
M  V30 67 C -11.980999 11.190289 -7.242997 0
M  V30 68 N -12.353888 12.327481 -7.919677 0
M  V30 69 C -13.530485 12.724010 -7.447471 0
M  V30 70 C -14.420062 13.814968 -7.753838 0
M  V30 71 O -14.174230 14.672151 -8.593117 0
M  V30 72 N -15.513588 13.933054 -7.125180 0
M  V30 73 C -15.864838 13.055975 -6.172939 0
M  V30 74 N -17.013933 13.199980 -5.553332 0
M  V30 75 N -15.016799 11.930027 -5.813429 0
M  V30 76 C -13.882509 11.815816 -6.426923 0
M  V30 77 C -6.340595 6.064001 -6.520234 0
M  V30 78 C -6.263003 4.726035 -5.892365 0 CFG=1
M  V30 79 O -5.177268 3.931781 -5.956748 0
M  V30 80 C -7.087159 4.749415 -4.693267 0
M  V30 81 S -8.401741 5.860170 -4.645417 0
M  V30 82 C -6.355048 3.837039 -3.513989 0
M  V30 83 S -6.557229 4.448060 -1.869526 0
M  V30 84 C -5.439561 2.687352 -3.735434 0 CFG=2
M  V30 85 N -4.644034 1.674388 -3.159261 0
M  V30 86 C -3.216921 1.116988 -3.691882 0
M  V30 87 C -2.349149 0.134727 -3.340148 0
M  V30 88 O -2.585407 -0.655442 -2.543832 0
M  V30 89 N -1.135072 0.101286 -4.025406 0
M  V30 90 C -0.743832 0.950096 -4.988890 0
M  V30 91 N 0.416234 0.770909 -5.412278 0
M  V30 92 N -1.635448 1.799907 -5.299010 0
M  V30 93 C -2.800214 1.904103 -4.757748 0
M  V30 94 N -3.781748 2.770811 -5.113053 0
M  V30 95 C -4.749840 3.167075 -5.127920 0 CFG=2
M  V30 96 Fe 0.643501 -3.655160 -3.499085 0 VAL=2
M  V30 97 Fe -0.459618 -3.233900 -0.723299 0 VAL=2
M  V30 98 S 1.691460 -2.591474 -1.641413 0
M  V30 99 S -0.622201 -5.175216 -2.176672 0
M  V30 100 P -12.207745 -22.638903 16.448420 0 CFG=1
M  V30 101 O -13.328794 -23.584944 16.298569 0
M  V30 102 O -12.037931 -21.784355 15.314028 0
M  V30 103 O -12.345161 -22.159012 17.837667 0
M  V30 104 O -12.441566 -20.499884 18.916801 0
M  V30 105 P -11.372997 -21.531767 18.730976 0 CFG=2
M  V30 106 O -10.210708 -20.739201 18.271187 0
M  V30 107 O -11.160869 -22.393711 19.873367 0
M  V30 108 O -10.932385 -23.166979 16.681816 0
M  V30 109 C -10.243667 -22.349291 17.240870 0
M  V30 110 C -9.544947 -23.001175 18.169817 0 CFG=2
M  V30 111 O -8.258912 -23.130985 17.674488 0
M  V30 112 C -10.015982 -24.266745 18.699331 0 CFG=2
M  V30 113 O -10.520839 -24.293648 19.842941 0
M  V30 114 C -8.825543 -25.182804 18.532578 0 CFG=1
M  V30 115 O -9.182285 -26.468382 18.417797 0
M  V30 116 C -7.799765 -24.403854 18.123514 0 CFG=1
M  V30 117 N -6.784220 -24.826143 17.167912 0
M  V30 118 C -6.892842 -25.665413 16.203802 0
M  V30 119 N -5.649238 -25.774523 15.596457 0
M  V30 120 C -4.813528 -24.956726 16.179123 0
M  V30 121 C -3.476890 -24.651392 15.971544 0
M  V30 122 O -2.787936 -25.234787 15.045914 0
M  V30 123 N -2.876734 -23.749483 16.771208 0
M  V30 124 C -3.567446 -23.123758 17.771248 0
M  V30 125 N -2.895071 -22.254269 18.498430 0
M  V30 126 N -4.910811 -23.392935 17.997089 0
M  V30 127 C -5.518255 -24.359880 17.179651 0
M  V30 128 C -13.556322 -20.812386 17.819134 0
M  V30 129 C -14.048436 -19.490446 17.406610 0 CFG=2
M  V30 130 O -13.284586 -18.700565 16.587954 0
M  V30 131 C -14.971556 -18.769781 18.055885 0
M  V30 132 S -16.433382 -19.586866 18.588282 0
M  V30 133 C -14.681691 -17.141792 18.123812 0
M  V30 134 S -16.059160 -16.350737 18.918982 0
M  V30 135 C -13.648326 -16.488035 17.692711 0 CFG=1
M  V30 136 N -12.895185 -15.420759 18.122675 0
M  V30 137 C -11.421726 -15.298231 17.767883 0
M  V30 138 C -10.451808 -14.496391 18.195244 0
M  V30 139 O -10.713703 -13.602370 18.960669 0
M  V30 140 N -9.198472 -14.793034 17.631889 0
M  V30 141 C -8.884686 -15.800127 16.783260 0
M  V30 142 N -7.672635 -16.041788 16.254465 0
M  V30 143 N -9.855677 -16.510088 16.417652 0
M  V30 144 C -11.060020 -16.251272 16.838717 0
M  V30 145 N -12.072168 -16.953583 16.579077 0
M  V30 146 C -13.125725 -17.298096 16.637558 0 CFG=1
M  V30 147 P -11.526504 -27.348730 16.012787 0 CFG=2
M  V30 148 O -12.076580 -26.028028 16.341602 0
M  V30 149 O -11.634680 -27.665899 14.563704 0
M  V30 150 O -12.154354 -28.303192 17.061630 0
M  V30 151 O -12.950412 -30.315853 16.034317 0
M  V30 152 P -12.107340 -29.765976 17.244230 0 CFG=2
M  V30 153 O -12.900029 -29.923237 18.515041 0
M  V30 154 O -10.755244 -30.492783 17.225927 0
M  V30 155 O -9.976398 -27.381500 16.364328 0
M  V30 156 C -9.189748 -27.823612 15.711714 0
M  V30 157 C -7.811095 -27.915119 16.433788 0 CFG=1
M  V30 158 O -7.249003 -26.523111 16.588943 0
M  V30 159 C -8.005284 -28.544346 17.719448 0 CFG=1
M  V30 160 O -7.154259 -29.565401 17.750101 0
M  V30 161 C -7.614044 -27.431885 18.724024 0 CFG=1
M  V30 162 O -6.759228 -27.975590 19.707750 0
M  V30 163 C -6.821020 -26.354696 17.979115 0 CFG=2
M  V30 164 N -7.284076 -25.054792 18.401136 0
M  V30 165 C -8.541205 -24.628164 18.560570 0
M  V30 166 N -8.496894 -23.325865 18.911594 0
M  V30 167 C -7.206278 -22.898159 18.983995 0
M  V30 168 C -6.560579 -21.693438 19.248928 0
M  V30 169 O -7.061829 -20.616680 19.490276 0
M  V30 170 N -5.222625 -21.620939 19.234245 0
M  V30 171 C -4.549213 -22.637629 18.983635 0
M  V30 172 N -3.178350 -22.581917 19.023260 0
M  V30 173 N -5.158947 -23.976625 18.665459 0
M  V30 174 C -6.435226 -24.036068 18.665634 0
M  V30 175 C -12.919087 -29.872627 15.176252 0
M  V30 176 C -12.975721 -30.964001 14.175117 0 CFG=1
M  V30 177 O -13.127678 -32.076828 14.873522 0
M  V30 178 C -13.960203 -30.810261 13.111320 0
M  V30 179 S -14.460343 -29.371183 12.442038 0
M  V30 180 C -14.324279 -32.155769 12.547272 0
M  V30 181 S -15.321074 -32.171780 11.003414 0
M  V30 182 C -13.971559 -33.448647 12.961325 0 CFG=1
M  V30 183 N -13.891604 -34.688446 12.587109 0
M  V30 184 C -13.350576 -35.795750 13.478210 0
M  V30 185 C -13.184649 -37.068855 13.329401 0
M  V30 186 O -13.486151 -37.580257 12.295191 0
M  V30 187 N -12.675002 -37.676254 14.509504 0
M  V30 188 C -12.336419 -37.140137 15.707891 0
M  V30 189 N -11.920426 -37.819645 16.776896 0
M  V30 190 N -12.501299 -35.896889 15.762491 0
M  V30 191 C -13.005231 -35.309288 14.649666 0
M  V30 192 N -13.213445 -34.134193 14.533411 0
M  V30 193 C -13.490729 -33.231903 14.136488 0 CFG=1
M  V30 194 P 5.077477 6.345766 -12.085388 0 CFG=2
M  V30 195 O 5.053658 5.298507 -11.028616 0
M  V30 196 O 5.758958 7.656121 -11.724075 0
M  V30 197 O 3.851205 6.660573 -12.631685 0
M  V30 198 O 2.244556 6.728391 -12.248404 0
M  V30 199 P 2.914803 6.130679 -13.292267 0 CFG=2
M  V30 200 O 2.353521 4.786088 -13.289902 0
M  V30 201 O 3.113126 6.726717 -14.633678 0
M  V30 202 O 5.852293 5.770286 -13.342062 0
M  V30 203 C 5.143490 5.300857 -14.601395 0
M  V30 204 C 6.160093 4.898120 -15.391695 0 CFG=2
M  V30 205 O 6.874053 4.050043 -14.607523 0
M  V30 206 C 7.047462 5.604869 -16.211597 0 CFG=2
M  V30 207 O 7.076802 6.191767 -17.219320 0
M  V30 208 C 8.415288 4.834159 -15.918552 0 CFG=2
M  V30 209 O 9.205145 4.683579 -16.919744 0
M  V30 210 C 8.349296 4.366550 -14.683083 0 CFG=2
M  V30 211 N 9.019439 3.530003 -13.795809 0
M  V30 212 C 9.067638 3.824119 -12.530657 0
M  V30 213 N 9.742402 2.891356 -11.933853 0
M  V30 214 C 10.196625 1.987620 -12.771486 0
M  V30 215 C 10.993584 0.812927 -12.627230 0
M  V30 216 O 11.490885 0.344566 -11.579729 0
M  V30 217 N 11.266866 0.070792 -13.824560 0
M  V30 218 C 10.819324 0.417912 -14.949007 0
M  V30 219 N 11.163284 -0.384933 -16.041204 0
M  V30 220 N 10.034244 1.592288 -15.078707 0
M  V30 221 C 9.745358 2.350965 -13.976397 0
M  V30 222 C 3.473552 7.569039 -11.262228 0
M  V30 223 C 2.992909 7.879294 -9.911314 0 CFG=2
M  V30 224 O 3.647050 7.525736 -8.841482 0
M  V30 225 C 1.590881 7.825473 -9.668381 0
M  V30 226 S 0.522053 8.515636 -10.780136 0
M  V30 227 C 1.114610 7.366036 -8.166817 0
M  V30 228 S -0.610440 7.598296 -7.910649 0
M  V30 229 C 1.827632 6.816633 -7.185979 0 CFG=1
M  V30 230 N 1.737508 5.931666 -6.101260 0
M  V30 231 C 2.942163 5.100397 -5.595738 0
M  V30 232 C 3.048009 4.084880 -4.740197 0
M  V30 233 O 2.133298 3.725377 -4.089987 0
M  V30 234 N 4.316057 3.506306 -4.677340 0
M  V30 235 C 5.396167 3.879552 -5.385459 0
M  V30 236 N 6.588844 3.299100 -5.234565 0
M  V30 237 N 5.247353 4.895394 -6.169815 0
M  V30 238 C 4.108493 5.504583 -6.233371 0
M  V30 239 N 3.872168 6.450876 -7.007547 0
M  V30 240 C 3.218614 7.240385 -7.550380 0 CFG=1
M  V30 END ATOM
M  V30 BEGIN BOND
M  V30 1 2 2 3
M  V30 2 1 2 4 CFG=3
M  V30 3 1 2 5
M  V30 4 1 2 10
M  V30 5 1 5 7
M  V30 6 1 6 7
M  V30 7 1 6 30
M  V30 8 2 7 8
M  V30 9 1 7 9 CFG=3
M  V30 10 1 10 11
M  V30 11 1 12 11 CFG=3
M  V30 12 1 12 13
M  V30 13 1 12 14
M  V30 14 1 13 18
M  V30 15 1 14 15 CFG=1
M  V30 16 1 14 16
M  V30 17 1 16 17 CFG=1
M  V30 18 1 16 18
M  V30 19 1 18 19 CFG=3
M  V30 20 1 19 20
M  V30 21 1 19 29
M  V30 22 2 20 21
M  V30 23 1 21 22
M  V30 24 1 22 23
M  V30 25 2 22 29
M  V30 26 2 23 24
M  V30 27 1 23 25
M  V30 28 1 25 26
M  V30 29 1 26 27
M  V30 30 2 26 28
M  V30 31 1 28 29
M  V30 32 1 31 30 CFG=1
M  V30 33 1 31 32
M  V30 34 1 31 33
M  V30 35 1 32 48
M  V30 36 1 33 34
M  V30 37 2 33 35
M  V30 38 1 35 36
M  V30 39 1 35 37
M  V30 40 1 37 38 CFG=3
M  V30 41 1 37 48
M  V30 42 1 38 39
M  V30 43 1 39 40
M  V30 44 2 39 46
M  V30 45 2 40 41
M  V30 46 1 40 42
M  V30 47 1 42 43
M  V30 48 1 43 44
M  V30 49 2 43 45
M  V30 50 1 45 46
M  V30 51 1 46 47
M  V30 52 1 48 47 CFG=3
M  V30 53 2 49 50
M  V30 54 1 49 51 CFG=1
M  V30 55 1 49 52
M  V30 56 1 49 57
M  V30 57 1 52 54
M  V30 58 1 53 54
M  V30 59 1 53 77
M  V30 60 2 54 55
M  V30 61 1 54 56 CFG=1
M  V30 62 1 57 58
M  V30 63 1 59 58 CFG=3
M  V30 64 1 59 60
M  V30 65 1 59 61
M  V30 66 1 60 65
M  V30 67 1 61 62 CFG=1
M  V30 68 1 61 63
M  V30 69 1 63 64 CFG=1
M  V30 70 1 63 65
M  V30 71 1 65 66 CFG=3
M  V30 72 1 66 67
M  V30 73 1 66 76
M  V30 74 2 67 68
M  V30 75 1 68 69
M  V30 76 1 69 70
M  V30 77 2 69 76
M  V30 78 2 70 71
M  V30 79 1 70 72
M  V30 80 1 72 73
M  V30 81 1 73 74
M  V30 82 2 73 75
M  V30 83 1 75 76
M  V30 84 1 78 77 CFG=1
M  V30 85 1 78 79
M  V30 86 1 78 80
M  V30 87 1 79 95
M  V30 88 1 80 81
M  V30 89 2 80 82
M  V30 90 1 82 83
M  V30 91 1 82 84
M  V30 92 1 84 85 CFG=1
M  V30 93 1 84 95
M  V30 94 1 85 86
M  V30 95 1 86 87
M  V30 96 2 86 93
M  V30 97 2 87 88
M  V30 98 1 87 89
M  V30 99 1 89 90
M  V30 100 1 90 91
M  V30 101 2 90 92
M  V30 102 1 92 93
M  V30 103 1 93 94
M  V30 104 1 95 94 CFG=1
M  V30 105 1 96 98
M  V30 106 1 96 99
M  V30 107 1 97 98
M  V30 108 1 97 99
M  V30 109 2 100 101
M  V30 110 1 100 102 CFG=3
M  V30 111 1 100 103
M  V30 112 1 100 108
M  V30 113 1 103 105
M  V30 114 1 104 105
M  V30 115 1 104 128
M  V30 116 2 105 106
M  V30 117 1 105 107 CFG=3
M  V30 118 1 108 109
M  V30 119 1 110 109 CFG=1
M  V30 120 1 110 111
M  V30 121 1 110 112
M  V30 122 1 111 116
M  V30 123 1 112 113 CFG=3
M  V30 124 1 112 114
M  V30 125 1 114 115 CFG=3
M  V30 126 1 114 116
M  V30 127 1 116 117 CFG=1
M  V30 128 1 117 118
M  V30 129 1 117 127
M  V30 130 2 118 119
M  V30 131 1 119 120
M  V30 132 1 120 121
M  V30 133 2 120 127
M  V30 134 2 121 122
M  V30 135 1 121 123
M  V30 136 1 123 124
M  V30 137 1 124 125
M  V30 138 2 124 126
M  V30 139 1 126 127
M  V30 140 1 129 128 CFG=3
M  V30 141 1 129 130
M  V30 142 1 129 131
M  V30 143 1 130 146
M  V30 144 1 131 132
M  V30 145 2 131 133
M  V30 146 1 133 134
M  V30 147 1 133 135
M  V30 148 1 135 136 CFG=3
M  V30 149 1 135 146
M  V30 150 1 136 137
M  V30 151 1 137 138
M  V30 152 2 137 144
M  V30 153 2 138 139
M  V30 154 1 138 140
M  V30 155 1 140 141
M  V30 156 1 141 142
M  V30 157 2 141 143
M  V30 158 1 143 144
M  V30 159 1 144 145
M  V30 160 1 146 145 CFG=3
M  V30 161 2 147 148
M  V30 162 1 147 149 CFG=1
M  V30 163 1 147 150
M  V30 164 1 147 155
M  V30 165 1 150 152
M  V30 166 1 151 152
M  V30 167 1 151 175
M  V30 168 2 152 153
M  V30 169 1 152 154 CFG=3
M  V30 170 1 155 156
M  V30 171 1 157 156 CFG=1
M  V30 172 1 157 158
M  V30 173 1 157 159
M  V30 174 1 158 163
M  V30 175 1 159 160 CFG=3
M  V30 176 1 159 161
M  V30 177 1 161 162 CFG=1
M  V30 178 1 161 163
M  V30 179 1 163 164 CFG=1
M  V30 180 1 164 165
M  V30 181 1 164 174
M  V30 182 2 165 166
M  V30 183 1 166 167
M  V30 184 1 167 168
M  V30 185 2 167 174
M  V30 186 2 168 169
M  V30 187 1 168 170
M  V30 188 1 170 171
M  V30 189 1 171 172
M  V30 190 2 171 173
M  V30 191 1 173 174
M  V30 192 1 176 175 CFG=1
M  V30 193 1 176 177
M  V30 194 1 176 178
M  V30 195 1 177 193
M  V30 196 1 178 179
M  V30 197 2 178 180
M  V30 198 1 180 181
M  V30 199 1 180 182
M  V30 200 1 182 183 CFG=1
M  V30 201 1 182 193
M  V30 202 1 183 184
M  V30 203 1 184 185
M  V30 204 2 184 191
M  V30 205 2 185 186
M  V30 206 1 185 187
M  V30 207 1 187 188
M  V30 208 1 188 189
M  V30 209 2 188 190
M  V30 210 1 190 191
M  V30 211 1 191 192
M  V30 212 1 193 192 CFG=1
M  V30 213 2 194 195
M  V30 214 1 194 196 CFG=3
M  V30 215 1 194 197
M  V30 216 1 194 202
M  V30 217 1 197 199
M  V30 218 1 198 199
M  V30 219 1 198 222
M  V30 220 2 199 200
M  V30 221 1 199 201 CFG=1
M  V30 222 1 202 203
M  V30 223 1 204 203 CFG=3
M  V30 224 1 204 205
M  V30 225 1 204 206
M  V30 226 1 205 210
M  V30 227 1 206 207 CFG=1
M  V30 228 1 206 208
M  V30 229 1 208 209 CFG=1
M  V30 230 1 208 210
M  V30 231 1 210 211 CFG=3
M  V30 232 1 211 212
M  V30 233 1 211 221
M  V30 234 2 212 213
M  V30 235 1 213 214
M  V30 236 1 214 215
M  V30 237 2 214 221
M  V30 238 2 215 216
M  V30 239 1 215 217
M  V30 240 1 217 218
M  V30 241 1 218 219
M  V30 242 2 218 220
M  V30 243 1 220 221
M  V30 244 1 223 222 CFG=1
M  V30 245 1 223 224
M  V30 246 1 223 225
M  V30 247 1 224 240
M  V30 248 1 225 226
M  V30 249 2 225 227
M  V30 250 1 227 228
M  V30 251 1 227 229
M  V30 252 1 229 230 CFG=1
M  V30 253 1 229 240
M  V30 254 1 230 231
M  V30 255 1 231 232
M  V30 256 2 231 238
M  V30 257 2 232 233
M  V30 258 1 232 234
M  V30 259 1 234 235
M  V30 260 1 235 236
M  V30 261 2 235 237
M  V30 262 1 237 238
M  V30 263 1 238 239
M  V30 264 1 240 239 CFG=1
M  V30 END BOND
M  V30 BEGIN COLLECTION
M  V30 MDLV30/STEABS ATOMS=(0)
M  V30 END COLLECTION
M  V30 END CTAB
M  END
>  <model_server_result.job_id>  (5) 
U0KLM0PGsfydqzu864nncQ

>  <model_server_result.datetime_utc>  (5) 
2024-03-15 02:27:34

>  <model_server_result.server_version>  (5) 
0.9.11

>  <model_server_result.query_name>  (5) 
ligand

>  <model_server_result.source_id>  (5) 
pdb-bcif

>  <model_server_result.entry_id>  (5) 
7e5z

>  <model_server_params.name>  (5) 
atom_site

>  <model_server_params.value>  (5) 
{"label_asym_id":"C","auth_seq_id":1000}

>  <model_server_stats.io_time_ms>  (5) 
10

>  <model_server_stats.parse_time_ms>  (5) 
47

>  <model_server_stats.create_model_time_ms>  (5) 
21

>  <model_server_stats.query_time_ms>  (5) 
205

>  <model_server_stats.encode_time_ms>  (5) 
0

>  <model_server_stats.element_count>  (5) 
1

$$$$
