W
     RDKit          3D

  0  0  0  0  0  0  0  0  0  0999 V3000
M  V30 BEGIN CTAB
M  V30 COUNTS 240 264 0 0 0
M  V30 BEGIN ATOM
M  V30 1 W -13.732451 16.112486 14.818843 0 VAL=-1
M  V30 2 P -27.128859 12.462799 14.331972 0 CFG=2
M  V30 3 O -26.403404 13.710093 14.342563 0
M  V30 4 O -28.430435 12.480145 14.858315 0
M  V30 5 O -26.310528 11.243653 14.758956 0
M  V30 6 O -25.213411 12.561378 16.238747 0
M  V30 7 P -25.729868 11.129090 16.058710 0 CFG=1
M  V30 8 O -26.750795 10.810402 17.075174 0
M  V30 9 O -24.544500 10.201256 15.906669 0
M  V30 10 O -27.168579 12.018311 12.794399 0
M  V30 11 C -26.512651 12.239944 11.929755 0
M  V30 12 C -26.814289 11.619950 10.514648 0 CFG=2
M  V30 13 O -28.169420 10.939299 10.563672 0
M  V30 14 C -25.805191 10.707438 10.086507 0 CFG=2
M  V30 15 O -25.307192 11.111598 8.968572 0
M  V30 16 C -26.546917 9.330467 9.967389 0 CFG=2
M  V30 17 O -26.251196 8.769613 8.667946 0
M  V30 18 C -28.060497 9.565324 9.992181 0 CFG=1
M  V30 19 N -28.708399 8.592354 10.897461 0
M  V30 20 C -28.568356 8.434843 12.222748 0
M  V30 21 N -29.381479 7.415933 12.611615 0
M  V30 22 C -30.020754 6.880921 11.562885 0
M  V30 23 C -30.950739 5.836805 11.336249 0
M  V30 24 O -31.476736 5.071023 12.064268 0
M  V30 25 N -31.381254 5.544748 10.135022 0
M  V30 26 C -30.948679 6.203999 9.157804 0
M  V30 27 N -31.382380 5.926378 7.903595 0
M  V30 28 N -29.985662 7.336985 9.331805 0
M  V30 29 C -29.589926 7.633780 10.470614 0
M  V30 30 C -25.906601 13.516396 15.794145 0
M  V30 31 C -25.435904 14.701180 14.910541 0 CFG=1
M  V30 32 O -25.167751 15.669545 15.359607 0
M  V30 33 C -25.200993 14.203988 13.813247 0
M  V30 34 S -26.653360 13.687258 13.033187 0
M  V30 35 C -23.801420 14.756643 13.270647 0
M  V30 36 S -23.255032 13.990417 11.838593 0
M  V30 37 C -23.013519 15.928393 13.840854 0 CFG=2
M  V30 38 N -21.988810 16.692701 14.051163 0
M  V30 39 C -21.871288 17.699980 15.215621 0
M  V30 40 C -20.843355 18.464088 15.572507 0
M  V30 41 O -19.877756 18.505119 14.939118 0
M  V30 42 N -21.063768 19.156767 16.726543 0
M  V30 43 C -22.206675 19.138468 17.562723 0
M  V30 44 N -22.112980 19.829992 18.600481 0
M  V30 45 N -23.198311 18.413788 17.181589 0
M  V30 46 C -23.075592 17.737156 16.027628 0
M  V30 47 N -24.026016 17.096111 15.651689 0
M  V30 48 C -24.266594 16.491928 14.796563 0 CFG=2
M  V30 49 P 5.992133 -9.098780 3.709256 0 CFG=1
M  V30 50 O 5.431672 -7.802430 4.190097 0
M  V30 51 O 5.748548 -9.451349 2.277830 0
M  V30 52 O 7.415257 -9.126874 4.110387 0
M  V30 53 O 7.610970 -7.698316 2.485963 0
M  V30 54 P 8.504071 -8.450856 3.330332 0 CFG=1
M  V30 55 O 9.355242 -7.521322 4.169592 0
M  V30 56 O 9.295116 -9.476322 2.554112 0
M  V30 57 O 5.435294 -10.380029 4.634885 0
M  V30 58 C 5.585445 -11.373618 4.610865 0
M  V30 59 C 4.565799 -12.276633 5.448013 0 CFG=1
M  V30 60 O 5.136279 -13.615602 5.533021 0
M  V30 61 C 4.447331 -11.761257 6.856055 0 CFG=1
M  V30 62 O 3.087747 -11.517956 7.187900 0
M  V30 63 C 4.992563 -12.918762 7.765270 0 CFG=1
M  V30 64 O 4.065661 -13.340475 8.803797 0
M  V30 65 C 5.207940 -14.048452 6.832430 0 CFG=2
M  V30 66 N 6.501973 -14.582775 7.130011 0
M  V30 67 C 7.627766 -14.079384 6.702147 0
M  V30 68 N 8.644878 -14.865079 7.083107 0
M  V30 69 C 8.122767 -15.883023 7.782741 0
M  V30 70 C 8.682843 -16.981831 8.431151 0
M  V30 71 O 9.914458 -17.293339 8.522909 0
M  V30 72 N 7.872663 -17.911367 9.126478 0
M  V30 73 C 6.553870 -17.672443 9.084991 0
M  V30 74 N 5.917405 -18.661911 9.752739 0
M  V30 75 N 5.954963 -16.596586 8.474418 0
M  V30 76 C 6.735207 -15.694480 7.784204 0
M  V30 77 C 6.950389 -6.957576 1.851643 0
M  V30 78 C 5.625347 -6.549164 2.219347 0 CFG=1
M  V30 79 O 4.640503 -7.411854 1.924754 0
M  V30 80 C 5.746813 -6.270872 3.577031 0
M  V30 81 S 7.046632 -5.365752 4.050726 0
M  V30 82 C 4.318257 -6.455719 4.346345 0
M  V30 83 S 3.904042 -4.971875 5.160391 0
M  V30 84 C 3.385879 -7.524869 4.270807 0 CFG=1
M  V30 85 N 2.278171 -8.239952 4.583765 0
M  V30 86 C 1.721982 -9.566037 3.778030 0
M  V30 87 C 0.862067 -10.626350 3.925035 0
M  V30 88 O 0.134593 -10.634170 4.777928 0
M  V30 89 N 0.902267 -11.645944 2.934154 0
M  V30 90 C 1.711180 -11.683089 1.886134 0
M  V30 91 N 1.819883 -12.643364 1.024375 0
M  V30 92 N 2.441480 -10.605868 1.767851 0
M  V30 93 C 2.367008 -9.619058 2.589385 0
M  V30 94 N 2.999907 -8.578685 2.582603 0
M  V30 95 C 3.499984 -7.548936 2.652032 0 CFG=2
M  V30 96 Fe -1.459130 3.312285 1.070237 0 VAL=2
M  V30 97 Fe 1.411459 3.190714 -0.023448 0 VAL=2
M  V30 98 S 0.353660 1.989217 1.839290 0
M  V30 99 S -0.691546 3.619660 -1.178874 0
M  V30 100 P 10.991086 -0.302836 -2.468351 0 CFG=1
M  V30 101 O 10.272578 -1.060467 -3.477057 0
M  V30 102 O 10.185281 0.703929 -1.752236 0
M  V30 103 O 11.698876 -1.178480 -1.412058 0
M  V30 104 O 12.363582 -3.473826 -1.987047 0
M  V30 105 P 12.893548 -2.139982 -1.241316 0 CFG=2
M  V30 106 O 12.989366 -2.591033 0.193104 0
M  V30 107 O 14.121678 -1.762539 -1.876081 0
M  V30 108 O 12.166795 0.536829 -3.203573 0
M  V30 109 C 13.098466 0.490392 -3.413610 0
M  V30 110 C 14.042815 1.631089 -3.882671 0 CFG=1
M  V30 111 O 13.340924 2.471021 -4.845769 0
M  V30 112 C 14.519528 2.509736 -2.773280 0 CFG=1
M  V30 113 O 15.879270 2.843328 -2.828356 0
M  V30 114 C 13.570973 3.743850 -2.909156 0 CFG=1
M  V30 115 O 14.073211 4.696755 -2.203223 0
M  V30 116 C 13.450574 3.845491 -4.400640 0 CFG=2
M  V30 117 N 12.194741 4.569654 -4.722236 0
M  V30 118 C 10.949008 4.167500 -4.630027 0
M  V30 119 N 10.115237 5.192477 -5.044360 0
M  V30 120 C 10.837234 6.196651 -5.367468 0
M  V30 121 C 10.527497 7.484838 -5.873212 0
M  V30 122 O 9.333131 7.933896 -6.117521 0
M  V30 123 N 11.557473 8.404462 -6.097926 0
M  V30 124 C 12.835044 8.046966 -5.847537 0
M  V30 125 N 13.739459 8.953777 -6.035248 0
M  V30 126 N 13.233603 6.740833 -5.369051 0
M  V30 127 C 12.185153 5.863263 -5.179247 0
M  V30 128 C 12.058208 -3.308125 -3.383487 0
M  V30 129 C 11.409060 -4.675758 -3.354220 0 CFG=1
M  V30 130 O 12.365905 -5.687437 -3.533549 0
M  V30 131 C 10.652223 -4.870823 -2.150886 0
M  V30 132 S 9.144966 -4.145869 -1.958660 0
M  V30 133 C 11.241635 -5.990676 -1.267265 0
M  V30 134 S 10.253741 -6.260189 0.255764 0
M  V30 135 C 12.367965 -6.805071 -1.419896 0 CFG=2
M  V30 136 N 13.292573 -7.297278 -0.429513 0
M  V30 137 C 14.726644 -7.205503 -0.577397 0
M  V30 138 C 15.744267 -7.417686 0.179740 0
M  V30 139 O 15.597161 -7.972692 1.252711 0
M  V30 140 N 16.928993 -7.031923 -0.392885 0
M  V30 141 C 17.058329 -6.441880 -1.563516 0
M  V30 142 N 18.185472 -6.052711 -2.050400 0
M  V30 143 N 16.017992 -6.306722 -2.267884 0
M  V30 144 C 14.895465 -6.733690 -1.785912 0
M  V30 145 N 13.762305 -6.633672 -2.324909 0
M  V30 146 C 12.731277 -6.718845 -2.694139 0 CFG=2
M  V30 147 P 6.453466 -8.438669 4.598253 0 CFG=1
M  V30 148 O 7.336531 -9.480116 5.164462 0
M  V30 149 O 7.077198 -7.052263 4.574696 0
M  V30 150 O 5.705340 -8.608819 3.226940 0
M  V30 151 O 3.337198 -8.509774 3.192270 0
M  V30 152 P 4.571007 -9.408807 2.737512 0 CFG=2
M  V30 153 O 4.363857 -10.746425 3.293730 0
M  V30 154 O 4.614735 -9.346514 1.252770 0
M  V30 155 O 5.325893 -8.524676 5.509532 0
M  V30 156 C 4.476969 -7.735746 5.033535 0
M  V30 157 C 3.934436 -8.809431 5.395818 0 CFG=1
M  V30 158 O 4.825042 -9.649766 5.230932 0
M  V30 159 C 3.220585 -9.186113 6.530504 0 CFG=1
M  V30 160 O 2.094303 -9.368113 6.698192 0
M  V30 161 C 4.190358 -10.183791 7.303918 0 CFG=1
M  V30 162 O 3.669992 -10.616112 8.309793 0
M  V30 163 C 4.888900 -10.666400 6.377434 0 CFG=2
M  V30 164 N 6.099382 -11.291862 6.351888 0
M  V30 165 C 6.963768 -11.364104 5.301114 0
M  V30 166 N 8.014601 -12.195967 5.601135 0
M  V30 167 C 7.870013 -12.709615 6.840494 0
M  V30 168 C 8.616780 -13.679291 7.706095 0
M  V30 169 O 9.639157 -14.266477 7.313016 0
M  V30 170 N 8.130266 -13.928900 8.971518 0
M  V30 171 C 6.979103 -13.269002 9.392008 0
M  V30 172 N 6.680768 -13.618080 10.619230 0
M  V30 173 N 6.243974 -12.377954 8.636180 0
M  V30 174 C 6.654689 -12.085298 7.324865 0
M  V30 175 C 2.915624 -7.880596 3.335498 0
M  V30 176 C 2.133445 -7.030415 4.233640 0 CFG=2
M  V30 177 O 0.990188 -6.444366 4.077920 0
M  V30 178 C 3.135152 -6.318444 4.904101 0
M  V30 179 S 4.674374 -6.942293 5.038526 0
M  V30 180 C 2.423561 -5.370717 5.940249 0
M  V30 181 S 2.471208 -5.996984 7.605003 0
M  V30 182 C 1.375439 -4.387675 5.527119 0 CFG=2
M  V30 183 N 0.466882 -3.520355 6.267076 0
M  V30 184 C -0.972157 -3.149189 5.823906 0
M  V30 185 C -1.933985 -2.280959 6.266788 0
M  V30 186 O -1.806377 -1.558298 7.149390 0
M  V30 187 N -3.109642 -2.245422 5.581160 0
M  V30 188 C -3.422184 -3.029716 4.521939 0
M  V30 189 N -4.509619 -2.803929 4.042099 0
M  V30 190 N -2.495499 -3.849063 4.214867 0
M  V30 191 C -1.348891 -4.009460 4.782608 0
M  V30 192 N -0.345298 -4.934710 4.491203 0
M  V30 193 C 0.509995 -5.490050 4.658446 0 CFG=1
M  V30 194 P 13.114129 -0.624410 -6.362852 0 CFG=1
M  V30 195 O 13.579110 -2.015063 -6.693809 0
M  V30 196 O 11.912400 -0.161892 -7.060749 0
M  V30 197 O 12.799235 -0.484469 -4.962529 0
M  V30 198 O 14.580232 0.516539 -4.055998 0
M  V30 199 P 13.706719 -0.757663 -3.919034 0 CFG=1
M  V30 200 O 12.852321 -0.781551 -2.662850 0
M  V30 201 O 14.629508 -1.944292 -4.075740 0
M  V30 202 O 14.323140 0.376126 -6.574420 0
M  V30 203 C 14.732356 0.937122 -5.587844 0
M  V30 204 C 15.667001 1.740879 -6.315392 0 CFG=1
M  V30 205 O 15.018712 2.784327 -7.115192 0
M  V30 206 C 16.828117 2.246786 -5.738838 0 CFG=1
M  V30 207 O 17.992794 1.658278 -5.947762 0
M  V30 208 C 16.791319 3.807835 -5.983070 0 CFG=1
M  V30 209 O 18.080988 4.330879 -6.188912 0
M  V30 210 C 15.888885 3.975478 -7.100102 0 CFG=2
M  V30 211 N 15.051364 5.201644 -6.930243 0
M  V30 212 C 14.297627 5.547272 -5.877272 0
M  V30 213 N 13.624852 6.725352 -6.168417 0
M  V30 214 C 13.993306 7.094118 -7.394128 0
M  V30 215 C 13.661304 8.172647 -8.238035 0
M  V30 216 O 12.827674 9.100246 -7.930908 0
M  V30 217 N 14.279113 8.273060 -9.538233 0
M  V30 218 C 15.127902 7.353400 -9.923457 0
M  V30 219 N 15.603349 7.610068 -11.177613 0
M  V30 220 N 15.512767 6.214058 -9.141742 0
M  V30 221 C 14.917487 6.130577 -7.894080 0
M  V30 222 C 15.153016 1.202869 -4.732897 0
M  V30 223 C 15.060468 2.208179 -5.828170 0 CFG=2
M  V30 224 O 15.375716 3.414319 -5.722744 0
M  V30 225 C 13.741374 1.907334 -6.301472 0
M  V30 226 S 12.793937 0.653731 -5.822189 0
M  V30 227 C 13.631375 2.852052 -7.563109 0
M  V30 228 S 14.219945 2.072067 -8.989767 0
M  V30 229 C 13.524707 4.372186 -7.422442 0 CFG=2
M  V30 230 N 13.337464 5.635261 -7.874441 0
M  V30 231 C 13.790004 6.935584 -7.113513 0
M  V30 232 C 13.533257 8.243691 -7.170254 0
M  V30 233 O 12.858598 8.644904 -8.019792 0
M  V30 234 N 14.153691 9.058301 -6.163326 0
M  V30 235 C 14.941285 8.673219 -5.204422 0
M  V30 236 N 15.435603 9.527161 -4.337073 0
M  V30 237 N 15.230338 7.402433 -5.206820 0
M  V30 238 C 14.732423 6.636992 -6.128769 0
M  V30 239 N 14.888869 5.449831 -6.243895 0
M  V30 240 C 14.991340 4.430451 -6.568437 0 CFG=1
M  V30 END ATOM
M  V30 BEGIN BOND
M  V30 1 2 2 3
M  V30 2 1 2 4 CFG=3
M  V30 3 1 2 5
M  V30 4 1 2 10
M  V30 5 1 5 7
M  V30 6 1 6 7
M  V30 7 1 6 30
M  V30 8 2 7 8
M  V30 9 1 7 9 CFG=3
M  V30 10 1 10 11
M  V30 11 1 12 11 CFG=3
M  V30 12 1 12 13
M  V30 13 1 12 14
M  V30 14 1 13 18
M  V30 15 1 14 15 CFG=1
M  V30 16 1 14 16
M  V30 17 1 16 17 CFG=1
M  V30 18 1 16 18
M  V30 19 1 18 19 CFG=3
M  V30 20 1 19 20
M  V30 21 1 19 29
M  V30 22 2 20 21
M  V30 23 1 21 22
M  V30 24 1 22 23
M  V30 25 2 22 29
M  V30 26 2 23 24
M  V30 27 1 23 25
M  V30 28 1 25 26
M  V30 29 1 26 27
M  V30 30 2 26 28
M  V30 31 1 28 29
M  V30 32 1 31 30 CFG=1
M  V30 33 1 31 32
M  V30 34 1 31 33
M  V30 35 1 32 48
M  V30 36 1 33 34
M  V30 37 2 33 35
M  V30 38 1 35 36
M  V30 39 1 35 37
M  V30 40 1 37 38 CFG=1
M  V30 41 1 37 48
M  V30 42 1 38 39
M  V30 43 1 39 40
M  V30 44 2 39 46
M  V30 45 2 40 41
M  V30 46 1 40 42
M  V30 47 1 42 43
M  V30 48 1 43 44
M  V30 49 2 43 45
M  V30 50 1 45 46
M  V30 51 1 46 47
M  V30 52 1 48 47 CFG=1
M  V30 53 2 49 50
M  V30 54 1 49 51 CFG=3
M  V30 55 1 49 52
M  V30 56 1 49 57
M  V30 57 1 52 54
M  V30 58 1 53 54
M  V30 59 1 53 77
M  V30 60 2 54 55
M  V30 61 1 54 56 CFG=3
M  V30 62 1 57 58
M  V30 63 1 59 58 CFG=3
M  V30 64 1 59 60
M  V30 65 1 59 61
M  V30 66 1 60 65
M  V30 67 1 61 62 CFG=1
M  V30 68 1 61 63
M  V30 69 1 63 64 CFG=1
M  V30 70 1 63 65
M  V30 71 1 65 66 CFG=1
M  V30 72 1 66 67
M  V30 73 1 66 76
M  V30 74 2 67 68
M  V30 75 1 68 69
M  V30 76 1 69 70
M  V30 77 2 69 76
M  V30 78 2 70 71
M  V30 79 1 70 72
M  V30 80 1 72 73
M  V30 81 1 73 74
M  V30 82 2 73 75
M  V30 83 1 75 76
M  V30 84 1 78 77 CFG=1
M  V30 85 1 78 79
M  V30 86 1 78 80
M  V30 87 1 79 95
M  V30 88 1 80 81
M  V30 89 2 80 82
M  V30 90 1 82 83
M  V30 91 1 82 84
M  V30 92 1 84 85 CFG=1
M  V30 93 1 84 95
M  V30 94 1 85 86
M  V30 95 1 86 87
M  V30 96 2 86 93
M  V30 97 2 87 88
M  V30 98 1 87 89
M  V30 99 1 89 90
M  V30 100 1 90 91
M  V30 101 2 90 92
M  V30 102 1 92 93
M  V30 103 1 93 94
M  V30 104 1 95 94 CFG=1
M  V30 105 1 96 98
M  V30 106 1 96 99
M  V30 107 1 97 98
M  V30 108 1 97 99
M  V30 109 2 100 101
M  V30 110 1 100 102 CFG=1
M  V30 111 1 100 103
M  V30 112 1 100 108
M  V30 113 1 103 105
M  V30 114 1 104 105
M  V30 115 1 104 128
M  V30 116 2 105 106
M  V30 117 1 105 107 CFG=1
M  V30 118 1 108 109
M  V30 119 1 110 109 CFG=1
M  V30 120 1 110 111
M  V30 121 1 110 112
M  V30 122 1 111 116
M  V30 123 1 112 113 CFG=3
M  V30 124 1 112 114
M  V30 125 1 114 115 CFG=3
M  V30 126 1 114 116
M  V30 127 1 116 117 CFG=1
M  V30 128 1 117 118
M  V30 129 1 117 127
M  V30 130 2 118 119
M  V30 131 1 119 120
M  V30 132 1 120 121
M  V30 133 2 120 127
M  V30 134 2 121 122
M  V30 135 1 121 123
M  V30 136 1 123 124
M  V30 137 1 124 125
M  V30 138 2 124 126
M  V30 139 1 126 127
M  V30 140 1 129 128 CFG=1
M  V30 141 1 129 130
M  V30 142 1 129 131
M  V30 143 1 130 146
M  V30 144 1 131 132
M  V30 145 2 131 133
M  V30 146 1 133 134
M  V30 147 1 133 135
M  V30 148 1 135 136 CFG=1
M  V30 149 1 135 146
M  V30 150 1 136 137
M  V30 151 1 137 138
M  V30 152 2 137 144
M  V30 153 2 138 139
M  V30 154 1 138 140
M  V30 155 1 140 141
M  V30 156 1 141 142
M  V30 157 2 141 143
M  V30 158 1 143 144
M  V30 159 1 144 145
M  V30 160 1 146 145 CFG=1
M  V30 161 2 147 148
M  V30 162 1 147 149 CFG=3
M  V30 163 1 147 150
M  V30 164 1 147 155
M  V30 165 1 150 152
M  V30 166 1 151 152
M  V30 167 1 151 175
M  V30 168 2 152 153
M  V30 169 1 152 154 CFG=1
M  V30 170 1 155 156
M  V30 171 1 157 156 CFG=1
M  V30 172 1 157 158
M  V30 173 1 157 159
M  V30 174 1 158 163
M  V30 175 1 159 160 CFG=3
M  V30 176 1 159 161
M  V30 177 1 161 162 CFG=3
M  V30 178 1 161 163
M  V30 179 1 163 164 CFG=1
M  V30 180 1 164 165
M  V30 181 1 164 174
M  V30 182 2 165 166
M  V30 183 1 166 167
M  V30 184 1 167 168
M  V30 185 2 167 174
M  V30 186 2 168 169
M  V30 187 1 168 170
M  V30 188 1 170 171
M  V30 189 1 171 172
M  V30 190 2 171 173
M  V30 191 1 173 174
M  V30 192 1 176 175 CFG=1
M  V30 193 1 176 177
M  V30 194 1 176 178
M  V30 195 1 177 193
M  V30 196 1 178 179
M  V30 197 2 178 180
M  V30 198 1 180 181
M  V30 199 1 180 182
M  V30 200 1 182 183 CFG=1
M  V30 201 1 182 193
M  V30 202 1 183 184
M  V30 203 1 184 185
M  V30 204 2 184 191
M  V30 205 2 185 186
M  V30 206 1 185 187
M  V30 207 1 187 188
M  V30 208 1 188 189
M  V30 209 2 188 190
M  V30 210 1 190 191
M  V30 211 1 191 192
M  V30 212 1 193 192 CFG=1
M  V30 213 2 194 195
M  V30 214 1 194 196 CFG=3
M  V30 215 1 194 197
M  V30 216 1 194 202
M  V30 217 1 197 199
M  V30 218 1 198 199
M  V30 219 1 198 222
M  V30 220 2 199 200
M  V30 221 1 199 201 CFG=3
M  V30 222 1 202 203
M  V30 223 1 204 203 CFG=1
M  V30 224 1 204 205
M  V30 225 1 204 206
M  V30 226 1 205 210
M  V30 227 1 206 207 CFG=3
M  V30 228 1 206 208
M  V30 229 1 208 209 CFG=3
M  V30 230 1 208 210
M  V30 231 1 210 211 CFG=1
M  V30 232 1 211 212
M  V30 233 1 211 221
M  V30 234 2 212 213
M  V30 235 1 213 214
M  V30 236 1 214 215
M  V30 237 2 214 221
M  V30 238 2 215 216
M  V30 239 1 215 217
M  V30 240 1 217 218
M  V30 241 1 218 219
M  V30 242 2 218 220
M  V30 243 1 220 221
M  V30 244 1 223 222 CFG=3
M  V30 245 1 223 224
M  V30 246 1 223 225
M  V30 247 1 224 240
M  V30 248 1 225 226
M  V30 249 2 225 227
M  V30 250 1 227 228
M  V30 251 1 227 229
M  V30 252 1 229 230 CFG=3
M  V30 253 1 229 240
M  V30 254 1 230 231
M  V30 255 1 231 232
M  V30 256 2 231 238
M  V30 257 2 232 233
M  V30 258 1 232 234
M  V30 259 1 234 235
M  V30 260 1 235 236
M  V30 261 2 235 237
M  V30 262 1 237 238
M  V30 263 1 238 239
M  V30 264 1 240 239 CFG=3
M  V30 END BOND
M  V30 BEGIN COLLECTION
M  V30 MDLV30/STEABS ATOMS=(0)
M  V30 END COLLECTION
M  V30 END CTAB
M  END
>  <model_server_result.job_id>  (1) 
U0KLM0PGsfydqzu864nncQ

>  <model_server_result.datetime_utc>  (1) 
2024-03-15 02:27:34

>  <model_server_result.server_version>  (1) 
0.9.11

>  <model_server_result.query_name>  (1) 
ligand

>  <model_server_result.source_id>  (1) 
pdb-bcif

>  <model_server_result.entry_id>  (1) 
7e5z

>  <model_server_params.name>  (1) 
atom_site

>  <model_server_params.value>  (1) 
{"label_asym_id":"C","auth_seq_id":1000}

>  <model_server_stats.io_time_ms>  (1) 
10

>  <model_server_stats.parse_time_ms>  (1) 
47

>  <model_server_stats.create_model_time_ms>  (1) 
21

>  <model_server_stats.query_time_ms>  (1) 
205

>  <model_server_stats.encode_time_ms>  (1) 
0

>  <model_server_stats.element_count>  (1) 
1

$$$$
