W
     RDKit          3D

  0  0  0  0  0  0  0  0  0  0999 V3000
M  V30 BEGIN CTAB
M  V30 COUNTS 240 264 0 0 0
M  V30 BEGIN ATOM
M  V30 1 W 14.785028 4.546066 21.514441 0 VAL=-1
M  V30 2 P 4.469245 1.875362 -11.091879 0 CFG=1
M  V30 3 O 5.094568 3.159190 -10.693350 0
M  V30 4 O 4.568790 0.663796 -10.189485 0
M  V30 5 O 2.856844 2.179760 -11.412725 0
M  V30 6 O 0.927838 3.373150 -12.289202 0
M  V30 7 P 2.431193 2.937279 -12.679834 0 CFG=2
M  V30 8 O 2.381487 1.925282 -13.740562 0
M  V30 9 O 3.280242 4.136145 -12.882547 0
M  V30 10 O 4.919616 1.416304 -12.541096 0
M  V30 11 C 4.944080 0.813422 -13.027046 0
M  V30 12 C 5.327592 -0.134335 -14.151562 0 CFG=1
M  V30 13 O 6.173369 0.530377 -15.110075 0
M  V30 14 C 6.104326 -1.381645 -13.670164 0 CFG=1
M  V30 15 O 5.300062 -2.487827 -13.903011 0
M  V30 16 C 7.349150 -1.462590 -14.489344 0 CFG=1
M  V30 17 O 7.450280 -2.720429 -15.226475 0
M  V30 18 C 7.237900 -0.329898 -15.468561 0 CFG=2
M  V30 19 N 8.482283 0.376638 -15.493540 0
M  V30 20 C 8.881462 1.212314 -14.543663 0
M  V30 21 N 10.026133 1.800794 -14.944798 0
M  V30 22 C 10.319168 1.299314 -16.139837 0
M  V30 23 C 11.390329 1.518391 -17.034628 0
M  V30 24 O 12.284101 2.294538 -16.815733 0
M  V30 25 N 11.408428 0.807044 -18.214645 0
M  V30 26 C 10.454153 -0.054937 -18.512491 0
M  V30 27 N 10.626125 -0.674488 -19.683619 0
M  V30 28 N 9.429964 -0.309814 -17.712170 0
M  V30 29 C 9.322699 0.379888 -16.511776 0
M  V30 30 C -0.002785 4.260112 -11.241457 0
M  V30 31 C -0.810737 3.276432 -11.213003 0 CFG=1
M  V30 32 O -2.199863 3.419696 -11.577282 0
M  V30 33 C -0.145923 2.537072 -11.916798 0
M  V30 34 S 1.435113 2.953986 -12.155216 0
M  V30 35 C -0.844082 1.309142 -12.163595 0
M  V30 36 S 0.126708 -0.102345 -12.090748 0
M  V30 37 C -2.163796 1.164375 -12.476488 0 CFG=1
M  V30 38 N -2.878518 0.257619 -13.009851 0
M  V30 39 C -4.107199 0.450945 -13.742699 0
M  V30 40 C -4.776911 -0.375684 -14.439682 0
M  V30 41 O -4.446144 -1.490219 -14.372208 0
M  V30 42 N -5.737579 0.220358 -15.138237 0
M  V30 43 C -6.102229 1.547846 -15.189789 0
M  V30 44 N -6.980448 2.032904 -15.942808 0
M  V30 45 N -5.441200 2.203601 -14.425388 0
M  V30 46 C -4.550268 1.733666 -13.654593 0
M  V30 47 N -3.980878 2.455590 -12.792690 0
M  V30 48 C -2.987565 2.260658 -11.964819 0 CFG=2
M  V30 49 P 1.263135 3.924145 -6.947283 0 CFG=1
M  V30 50 O -0.119749 3.524932 -6.961819 0
M  V30 51 O 1.943750 4.212602 -5.609012 0
M  V30 52 O 2.194425 3.064891 -7.869782 0
M  V30 53 O 0.821363 2.733658 -9.813860 0
M  V30 54 P 1.795894 1.994298 -8.788108 0 CFG=1
M  V30 55 O 3.021502 1.553795 -9.513594 0
M  V30 56 O 1.008691 0.906871 -8.062578 0
M  V30 57 O 1.362687 5.299442 -7.864294 0
M  V30 58 C 1.186299 5.472741 -8.837424 0
M  V30 59 C 1.415310 6.905799 -9.424457 0 CFG=1
M  V30 60 O 1.110104 7.902583 -8.322596 0
M  V30 61 C 2.824504 7.137218 -9.901888 0 CFG=1
M  V30 62 O 2.751850 7.623545 -11.152149 0
M  V30 63 C 3.369843 8.234345 -8.941537 0 CFG=1
M  V30 64 O 4.136556 9.215238 -9.612114 0
M  V30 65 C 2.176708 8.893110 -8.317107 0 CFG=2
M  V30 66 N 2.466059 9.119145 -6.970295 0
M  V30 67 C 3.094857 8.255452 -6.129405 0
M  V30 68 N 3.082042 8.904341 -4.895801 0
M  V30 69 C 2.481773 10.103347 -4.983458 0
M  V30 70 C 2.178144 11.143958 -4.098864 0
M  V30 71 O 2.488407 11.041511 -2.928058 0
M  V30 72 N 1.548090 12.243954 -4.552236 0
M  V30 73 C 1.179588 12.393552 -5.833304 0
M  V30 74 N 0.597736 13.522778 -6.140528 0
M  V30 75 N 1.435168 11.411443 -6.711223 0
M  V30 76 C 2.079612 10.245079 -6.311897 0
M  V30 77 C 0.466418 4.215793 -9.577480 0
M  V30 78 C -0.771569 4.394196 -10.665485 0 CFG=1
M  V30 79 O -0.753434 5.134149 -11.643936 0
M  V30 80 C -1.159217 3.166426 -10.700951 0
M  V30 81 S -1.968883 2.581733 -9.276147 0
M  V30 82 C -1.147076 2.601008 -12.270191 0
M  V30 83 S -1.262284 0.811101 -12.394436 0
M  V30 84 C -1.066431 3.341138 -13.450197 0 CFG=2
M  V30 85 N -0.657685 3.172382 -14.666460 0
M  V30 86 C -0.102222 4.299353 -15.638264 0
M  V30 87 C 0.404665 4.166839 -16.864872 0
M  V30 88 O 0.467978 3.079991 -17.392630 0
M  V30 89 N 0.797059 5.370151 -17.443087 0
M  V30 90 C 0.733205 6.601871 -16.860277 0
M  V30 91 N 1.124390 7.536058 -17.573851 0
M  V30 92 N 0.249720 6.631798 -15.670481 0
M  V30 93 C -0.182622 5.532993 -15.055368 0
M  V30 94 N -0.676815 5.603647 -13.825346 0
M  V30 95 C -1.201615 4.904108 -12.952141 0 CFG=2
M  V30 96 Fe -1.347579 1.896536 2.402992 0 VAL=2
M  V30 97 Fe 0.643407 4.215698 2.252048 0 VAL=2
M  V30 98 S 1.074970 1.932087 2.675399 0
M  V30 99 S -1.443463 4.044600 2.694358 0
M  V30 100 P -6.640500 9.073286 -7.930716 0 CFG=2
M  V30 101 O -5.279672 9.572465 -8.251381 0
M  V30 102 O -6.756966 8.105042 -6.891111 0
M  V30 103 O -7.489497 8.724409 -9.186468 0
M  V30 104 O -6.739803 8.187257 -10.531964 0
M  V30 105 P -7.580737 7.544972 -9.950550 0 CFG=1
M  V30 106 O -7.038802 6.465854 -10.623654 0
M  V30 107 O -8.842892 7.166308 -9.538553 0
M  V30 108 O -7.502907 10.402274 -7.505775 0
M  V30 109 C -8.079926 11.020469 -8.296411 0
M  V30 110 C -8.703920 11.970963 -7.597263 0 CFG=2
M  V30 111 O -9.521496 11.322705 -6.538786 0
M  V30 112 C -9.161518 13.261332 -7.663221 0 CFG=1
M  V30 113 O -8.721928 14.172093 -8.271247 0
M  V30 114 C -10.680830 13.153393 -7.410899 0 CFG=2
M  V30 115 O -11.212498 14.388886 -7.455687 0
M  V30 116 C -10.663343 12.328145 -6.319368 0 CFG=1
M  V30 117 N -11.816689 11.485454 -6.065207 0
M  V30 118 C -12.518213 10.793188 -6.950410 0
M  V30 119 N -13.525763 10.146235 -6.287902 0
M  V30 120 C -13.429737 10.456595 -4.982411 0
M  V30 121 C -14.134583 10.095622 -3.869995 0
M  V30 122 O -15.151310 9.313012 -3.838170 0
M  V30 123 N -13.800901 10.581904 -2.661853 0
M  V30 124 C -12.751740 11.422756 -2.566174 0
M  V30 125 N -12.466202 11.887931 -1.339882 0
M  V30 126 N -11.980425 11.817310 -3.680830 0
M  V30 127 C -12.324350 11.331438 -4.866849 0
M  V30 128 C -7.060092 9.468310 -10.846846 0
M  V30 129 C -5.679522 9.855938 -10.646458 0 CFG=2
M  V30 130 O -4.974775 9.714333 -11.729517 0
M  V30 131 C -5.244541 9.518721 -9.510500 0
M  V30 132 S -5.842344 10.225041 -8.073331 0
M  V30 133 C -3.734251 8.877890 -9.636265 0
M  V30 134 S -3.159326 8.413807 -8.069778 0
M  V30 135 C -3.095500 8.577759 -10.777075 0 CFG=2
M  V30 136 N -1.705450 8.361920 -11.232826 0
M  V30 137 C -1.357312 8.373702 -12.747429 0
M  V30 138 C -0.294464 8.141660 -13.476557 0
M  V30 139 O 0.751063 7.936742 -13.020372 0
M  V30 140 N -0.489868 8.112810 -14.867577 0
M  V30 141 C -1.615481 8.295043 -15.495247 0
M  V30 142 N -1.769779 8.168287 -16.699699 0
M  V30 143 N -2.616315 8.624315 -14.695951 0
M  V30 144 C -2.412862 8.699428 -13.417248 0
M  V30 145 N -3.233778 9.019356 -12.600296 0
M  V30 146 C -3.716012 9.414477 -11.695736 0 CFG=1
M  V30 147 P 20.144344 -7.437349 26.849928 0 CFG=2
M  V30 148 O 21.026608 -7.395483 25.658808 0
M  V30 149 O 20.623053 -6.982404 28.119970 0
M  V30 150 O 19.490494 -8.851826 26.934299 0
M  V30 151 O 20.654808 -10.608935 25.772430 0
M  V30 152 P 20.117384 -10.212419 27.260530 0 CFG=1
M  V30 153 O 21.307001 -10.173014 28.102495 0
M  V30 154 O 18.982021 -11.032956 27.729271 0
M  V30 155 O 18.864590 -6.712088 26.465946 0
M  V30 156 C 18.266361 -6.255291 26.228123 0
M  V30 157 C 17.088995 -6.816738 25.873295 0 CFG=1
M  V30 158 O 16.198822 -6.616263 27.064251 0
M  V30 159 C 16.243259 -6.162824 24.731750 0 CFG=1
M  V30 160 O 16.409348 -6.062827 23.699974 0
M  V30 161 C 14.808090 -6.686521 25.199070 0 CFG=1
M  V30 162 O 14.408678 -7.819333 24.521671 0
M  V30 163 C 14.869478 -6.813747 26.535034 0 CFG=2
M  V30 164 N 13.981096 -6.006953 27.385128 0
M  V30 165 C 13.584612 -4.674450 27.290449 0
M  V30 166 N 12.752054 -4.372355 28.342728 0
M  V30 167 C 12.631460 -5.507944 29.075014 0
M  V30 168 C 11.920649 -5.804267 30.224253 0
M  V30 169 O 11.174763 -5.008734 30.860018 0
M  V30 170 N 11.954277 -7.071834 30.757956 0
M  V30 171 C 12.701220 -8.004735 30.147070 0
M  V30 172 N 12.710445 -9.301380 30.675795 0
M  V30 173 N 13.489542 -7.731046 28.938700 0
M  V30 174 C 13.413780 -6.534937 28.451229 0
M  V30 175 C 20.587599 -10.693280 24.633858 0
M  V30 176 C 21.647791 -9.546083 24.241508 0 CFG=2
M  V30 177 O 22.631533 -9.904880 23.682617 0
M  V30 178 C 21.394495 -9.164820 25.216051 0
M  V30 179 S 20.072260 -8.072936 25.028574 0
M  V30 180 C 22.670908 -9.344318 26.126221 0
M  V30 181 S 22.733370 -8.140642 27.363028 0
M  V30 182 C 23.786209 -10.274119 25.925375 0 CFG=1
M  V30 183 N 24.574846 -11.226401 26.072426 0
M  V30 184 C 25.345932 -12.058084 24.934797 0
M  V30 185 C 26.160067 -13.149694 24.852449 0
M  V30 186 O 26.471226 -13.645466 25.810026 0
M  V30 187 N 26.618481 -13.436106 23.473396 0
M  V30 188 C 26.284433 -12.837465 22.326191 0
M  V30 189 N 26.743362 -13.150036 21.152861 0
M  V30 190 N 25.505178 -11.879908 22.455725 0
M  V30 191 C 25.157722 -11.549701 23.662878 0
M  V30 192 N 24.457659 -10.647986 23.930843 0
M  V30 193 C 23.838278 -9.790535 24.383871 0 CFG=1
M  V30 194 P 5.418923 0.851808 -9.749840 0 CFG=2
M  V30 195 O 4.901929 0.058223 -10.959369 0
M  V30 196 O 6.559999 0.222507 -8.965885 0
M  V30 197 O 4.138894 0.944085 -8.595779 0
M  V30 198 O 2.505262 0.128403 -6.962472 0
M  V30 199 P 3.267008 -0.444088 -8.113970 0 CFG=1
M  V30 200 O 2.342375 -0.717890 -9.221124 0
M  V30 201 O 4.211894 -1.441788 -7.616484 0
M  V30 202 O 5.677995 2.269534 -10.168741 0
M  V30 203 C 5.350980 2.948125 -10.579979 0
M  V30 204 C 6.349553 3.711336 -11.107545 0 CFG=1
M  V30 205 O 5.851649 4.799270 -11.933273 0
M  V30 206 C 7.381778 4.328927 -10.202522 0 CFG=1
M  V30 207 O 8.725750 4.089999 -10.508052 0
M  V30 208 C 7.072069 5.868353 -10.191036 0 CFG=1
M  V30 209 O 8.129847 6.657343 -9.836386 0
M  V30 210 C 6.584721 6.046700 -11.578226 0 CFG=2
M  V30 211 N 5.659166 7.152426 -11.591574 0
M  V30 212 C 4.753597 7.504683 -10.710195 0
M  V30 213 N 4.202448 8.661059 -11.071552 0
M  V30 214 C 4.742358 9.034990 -12.224407 0
M  V30 215 C 4.569215 10.136079 -13.101206 0
M  V30 216 O 3.723228 11.106634 -12.877407 0
M  V30 217 N 5.353606 10.177045 -14.259741 0
M  V30 218 C 6.226280 9.213396 -14.530703 0
M  V30 219 N 6.935242 9.307044 -15.686033 0
M  V30 220 N 6.415682 8.136481 -13.703005 0
M  V30 221 C 5.661209 8.054977 -12.533785 0
M  V30 222 C 1.847051 0.392640 -6.370477 0
M  V30 223 C 1.785730 1.573503 -5.597870 0 CFG=1
M  V30 224 O 0.976101 1.792465 -4.370544 0
M  V30 225 C 2.648376 2.411577 -5.708758 0
M  V30 226 S 3.726987 2.199741 -6.951163 0
M  V30 227 C 2.589894 3.653388 -4.480612 0
M  V30 228 S 3.922811 4.748123 -4.763014 0
M  V30 229 C 1.732796 3.967257 -3.388761 0 CFG=2
M  V30 230 N 1.555029 4.677777 -2.264117 0
M  V30 231 C 0.507009 4.185009 -1.100905 0
M  V30 232 C 0.069575 4.611918 0.143648 0
M  V30 233 O 0.454539 5.619365 0.566881 0
M  V30 234 N -0.855946 3.794383 0.808471 0
M  V30 235 C -1.320247 2.648093 0.343079 0
M  V30 236 N -2.180393 1.950295 1.012268 0
M  V30 237 N -0.904740 2.288210 -0.810308 0
M  V30 238 C -0.065968 3.029798 -1.454803 0
M  V30 239 N 0.364534 2.770662 -2.530042 0
M  V30 240 C 0.897951 2.792292 -3.570843 0 CFG=2
M  V30 END ATOM
M  V30 BEGIN BOND
M  V30 1 2 2 3
M  V30 2 1 2 4 CFG=1
M  V30 3 1 2 5
M  V30 4 1 2 10
M  V30 5 1 5 7
M  V30 6 1 6 7
M  V30 7 1 6 30
M  V30 8 2 7 8
M  V30 9 1 7 9 CFG=1
M  V30 10 1 10 11
M  V30 11 1 12 11 CFG=1
M  V30 12 1 12 13
M  V30 13 1 12 14
M  V30 14 1 13 18
M  V30 15 1 14 15 CFG=3
M  V30 16 1 14 16
M  V30 17 1 16 17 CFG=3
M  V30 18 1 16 18
M  V30 19 1 18 19 CFG=1
M  V30 20 1 19 20
M  V30 21 1 19 29
M  V30 22 2 20 21
M  V30 23 1 21 22
M  V30 24 1 22 23
M  V30 25 2 22 29
M  V30 26 2 23 24
M  V30 27 1 23 25
M  V30 28 1 25 26
M  V30 29 1 26 27
M  V30 30 2 26 28
M  V30 31 1 28 29
M  V30 32 1 31 30 CFG=3
M  V30 33 1 31 32
M  V30 34 1 31 33
M  V30 35 1 32 48
M  V30 36 1 33 34
M  V30 37 2 33 35
M  V30 38 1 35 36
M  V30 39 1 35 37
M  V30 40 1 37 38 CFG=3
M  V30 41 1 37 48
M  V30 42 1 38 39
M  V30 43 1 39 40
M  V30 44 2 39 46
M  V30 45 2 40 41
M  V30 46 1 40 42
M  V30 47 1 42 43
M  V30 48 1 43 44
M  V30 49 2 43 45
M  V30 50 1 45 46
M  V30 51 1 46 47
M  V30 52 1 48 47 CFG=3
M  V30 53 2 49 50
M  V30 54 1 49 51 CFG=1
M  V30 55 1 49 52
M  V30 56 1 49 57
M  V30 57 1 52 54
M  V30 58 1 53 54
M  V30 59 1 53 77
M  V30 60 2 54 55
M  V30 61 1 54 56 CFG=1
M  V30 62 1 57 58
M  V30 63 1 59 58 CFG=1
M  V30 64 1 59 60
M  V30 65 1 59 61
M  V30 66 1 60 65
M  V30 67 1 61 62 CFG=3
M  V30 68 1 61 63
M  V30 69 1 63 64 CFG=3
M  V30 70 1 63 65
M  V30 71 1 65 66 CFG=1
M  V30 72 1 66 67
M  V30 73 1 66 76
M  V30 74 2 67 68
M  V30 75 1 68 69
M  V30 76 1 69 70
M  V30 77 2 69 76
M  V30 78 2 70 71
M  V30 79 1 70 72
M  V30 80 1 72 73
M  V30 81 1 73 74
M  V30 82 2 73 75
M  V30 83 1 75 76
M  V30 84 1 78 77 CFG=3
M  V30 85 1 78 79
M  V30 86 1 78 80
M  V30 87 1 79 95
M  V30 88 1 80 81
M  V30 89 2 80 82
M  V30 90 1 82 83
M  V30 91 1 82 84
M  V30 92 1 84 85 CFG=1
M  V30 93 1 84 95
M  V30 94 1 85 86
M  V30 95 1 86 87
M  V30 96 2 86 93
M  V30 97 2 87 88
M  V30 98 1 87 89
M  V30 99 1 89 90
M  V30 100 1 90 91
M  V30 101 2 90 92
M  V30 102 1 92 93
M  V30 103 1 93 94
M  V30 104 1 95 94 CFG=3
M  V30 105 1 96 98
M  V30 106 1 96 99
M  V30 107 1 97 98
M  V30 108 1 97 99
M  V30 109 2 100 101
M  V30 110 1 100 102 CFG=3
M  V30 111 1 100 103
M  V30 112 1 100 108
M  V30 113 1 103 105
M  V30 114 1 104 105
M  V30 115 1 104 128
M  V30 116 2 105 106
M  V30 117 1 105 107 CFG=3
M  V30 118 1 108 109
M  V30 119 1 110 109 CFG=1
M  V30 120 1 110 111
M  V30 121 1 110 112
M  V30 122 1 111 116
M  V30 123 1 112 113 CFG=3
M  V30 124 1 112 114
M  V30 125 1 114 115 CFG=3
M  V30 126 1 114 116
M  V30 127 1 116 117 CFG=1
M  V30 128 1 117 118
M  V30 129 1 117 127
M  V30 130 2 118 119
M  V30 131 1 119 120
M  V30 132 1 120 121
M  V30 133 2 120 127
M  V30 134 2 121 122
M  V30 135 1 121 123
M  V30 136 1 123 124
M  V30 137 1 124 125
M  V30 138 2 124 126
M  V30 139 1 126 127
M  V30 140 1 129 128 CFG=1
M  V30 141 1 129 130
M  V30 142 1 129 131
M  V30 143 1 130 146
M  V30 144 1 131 132
M  V30 145 2 131 133
M  V30 146 1 133 134
M  V30 147 1 133 135
M  V30 148 1 135 136 CFG=1
M  V30 149 1 135 146
M  V30 150 1 136 137
M  V30 151 1 137 138
M  V30 152 2 137 144
M  V30 153 2 138 139
M  V30 154 1 138 140
M  V30 155 1 140 141
M  V30 156 1 141 142
M  V30 157 2 141 143
M  V30 158 1 143 144
M  V30 159 1 144 145
M  V30 160 1 146 145 CFG=1
M  V30 161 2 147 148
M  V30 162 1 147 149 CFG=3
M  V30 163 1 147 150
M  V30 164 1 147 155
M  V30 165 1 150 152
M  V30 166 1 151 152
M  V30 167 1 151 175
M  V30 168 2 152 153
M  V30 169 1 152 154 CFG=1
M  V30 170 1 155 156
M  V30 171 1 157 156 CFG=1
M  V30 172 1 157 158
M  V30 173 1 157 159
M  V30 174 1 158 163
M  V30 175 1 159 160 CFG=3
M  V30 176 1 159 161
M  V30 177 1 161 162 CFG=3
M  V30 178 1 161 163
M  V30 179 1 163 164 CFG=1
M  V30 180 1 164 165
M  V30 181 1 164 174
M  V30 182 2 165 166
M  V30 183 1 166 167
M  V30 184 1 167 168
M  V30 185 2 167 174
M  V30 186 2 168 169
M  V30 187 1 168 170
M  V30 188 1 170 171
M  V30 189 1 171 172
M  V30 190 2 171 173
M  V30 191 1 173 174
M  V30 192 1 176 175 CFG=3
M  V30 193 1 176 177
M  V30 194 1 176 178
M  V30 195 1 177 193
M  V30 196 1 178 179
M  V30 197 2 178 180
M  V30 198 1 180 181
M  V30 199 1 180 182
M  V30 200 1 182 183 CFG=1
M  V30 201 1 182 193
M  V30 202 1 183 184
M  V30 203 1 184 185
M  V30 204 2 184 191
M  V30 205 2 185 186
M  V30 206 1 185 187
M  V30 207 1 187 188
M  V30 208 1 188 189
M  V30 209 2 188 190
M  V30 210 1 190 191
M  V30 211 1 191 192
M  V30 212 1 193 192 CFG=1
M  V30 213 2 194 195
M  V30 214 1 194 196 CFG=3
M  V30 215 1 194 197
M  V30 216 1 194 202
M  V30 217 1 197 199
M  V30 218 1 198 199
M  V30 219 1 198 222
M  V30 220 2 199 200
M  V30 221 1 199 201 CFG=1
M  V30 222 1 202 203
M  V30 223 1 204 203 CFG=1
M  V30 224 1 204 205
M  V30 225 1 204 206
M  V30 226 1 205 210
M  V30 227 1 206 207 CFG=3
M  V30 228 1 206 208
M  V30 229 1 208 209 CFG=3
M  V30 230 1 208 210
M  V30 231 1 210 211 CFG=1
M  V30 232 1 211 212
M  V30 233 1 211 221
M  V30 234 2 212 213
M  V30 235 1 213 214
M  V30 236 1 214 215
M  V30 237 2 214 221
M  V30 238 2 215 216
M  V30 239 1 215 217
M  V30 240 1 217 218
M  V30 241 1 218 219
M  V30 242 2 218 220
M  V30 243 1 220 221
M  V30 244 1 223 222 CFG=1
M  V30 245 1 223 224
M  V30 246 1 223 225
M  V30 247 1 224 240
M  V30 248 1 225 226
M  V30 249 2 225 227
M  V30 250 1 227 228
M  V30 251 1 227 229
M  V30 252 1 229 230 CFG=1
M  V30 253 1 229 240
M  V30 254 1 230 231
M  V30 255 1 231 232
M  V30 256 2 231 238
M  V30 257 2 232 233
M  V30 258 1 232 234
M  V30 259 1 234 235
M  V30 260 1 235 236
M  V30 261 2 235 237
M  V30 262 1 237 238
M  V30 263 1 238 239
M  V30 264 1 240 239 CFG=1
M  V30 END BOND
M  V30 BEGIN COLLECTION
M  V30 MDLV30/STEABS ATOMS=(0)
M  V30 END COLLECTION
M  V30 END CTAB
M  END
>  <model_server_result.job_id>  (1) 
U0KLM0PGsfydqzu864nncQ

>  <model_server_result.datetime_utc>  (1) 
2024-03-15 02:27:34

>  <model_server_result.server_version>  (1) 
0.9.11

>  <model_server_result.query_name>  (1) 
ligand

>  <model_server_result.source_id>  (1) 
pdb-bcif

>  <model_server_result.entry_id>  (1) 
7e5z

>  <model_server_params.name>  (1) 
atom_site

>  <model_server_params.value>  (1) 
{"label_asym_id":"C","auth_seq_id":1000}

>  <model_server_stats.io_time_ms>  (1) 
10

>  <model_server_stats.parse_time_ms>  (1) 
47

>  <model_server_stats.create_model_time_ms>  (1) 
21

>  <model_server_stats.query_time_ms>  (1) 
205

>  <model_server_stats.encode_time_ms>  (1) 
0

>  <model_server_stats.element_count>  (1) 
1

$$$$
