W
     RDKit          3D

  0  0  0  0  0  0  0  0  0  0999 V3000
M  V30 BEGIN CTAB
M  V30 COUNTS 240 264 0 0 0
M  V30 BEGIN ATOM
M  V30 1 W 93.175000 101.522000 70.492000 0 VAL=-1
M  V30 2 P 90.810000 93.606000 67.835000 0 CFG=1
M  V30 3 O 92.080000 93.514000 68.611000 0
M  V30 4 O 89.509000 93.767000 68.545000 0
M  V30 5 O 90.919000 94.814000 66.808000 0
M  V30 6 O 89.385000 96.660000 67.484000 0
M  V30 7 P 89.627000 95.590000 66.307000 0 CFG=1
M  V30 8 O 89.903000 96.290000 65.021000 0
M  V30 9 O 88.514000 94.605000 66.349000 0
M  V30 10 O 90.715000 92.353000 66.849000 0
M  V30 11 C 91.958000 91.865000 66.301000 0
M  V30 12 C 91.696000 90.623000 65.491000 0 CFG=1
M  V30 13 O 92.934000 89.871000 65.411000 0
M  V30 14 C 90.669000 89.643000 66.064000 0 CFG=1
M  V30 15 O 90.074000 88.921000 64.996000 0
M  V30 16 C 91.581000 88.671000 66.807000 0 CFG=1
M  V30 17 O 90.939000 87.449000 67.079000 0
M  V30 18 C 92.699000 88.539000 65.786000 0 CFG=2
M  V30 19 N 93.938000 88.057000 66.369000 0
M  V30 20 C 94.211000 87.961000 67.705000 0
M  V30 21 N 95.418000 87.528000 67.954000 0
M  V30 22 C 95.987000 87.354000 66.702000 0
M  V30 23 C 97.286000 86.916000 66.347000 0
M  V30 24 O 98.215000 86.592000 67.093000 0
M  V30 25 N 97.472000 86.893000 64.971000 0
M  V30 26 C 96.510000 87.231000 64.058000 0
M  V30 27 N 96.869000 87.139000 62.773000 0
M  V30 28 N 95.281000 87.636000 64.382000 0
M  V30 29 C 95.086000 87.681000 65.719000 0
M  V30 30 C 90.428000 97.589000 67.945000 0
M  V30 31 C 89.909000 99.029000 67.864000 0 CFG=1
M  V30 32 O 88.504000 99.053000 68.141000 0
M  V30 33 C 90.556000 100.142000 68.643000 0
M  V30 34 S 92.062000 100.280000 69.565000 0
M  V30 35 C 89.850000 101.267000 68.649000 0
M  V30 36 S 90.857000 102.587000 69.189000 0
M  V30 37 C 88.364000 101.407000 68.483000 0 CFG=2
M  V30 38 N 87.803000 101.243000 69.816000 0
M  V30 39 C 86.629000 100.546000 70.009000 0
M  V30 40 C 86.056000 100.416000 71.278000 0
M  V30 41 O 86.543000 100.871000 72.309000 0
M  V30 42 N 84.862000 99.721000 71.359000 0
M  V30 43 C 84.259000 99.191000 70.250000 0
M  V30 44 N 83.112000 98.530000 70.420000 0
M  V30 45 N 84.790000 99.320000 69.045000 0
M  V30 46 C 85.960000 100.005000 68.910000 0
M  V30 47 N 86.495000 100.113000 67.674000 0
M  V30 48 C 87.922000 100.246000 67.618000 0 CFG=2
M  V30 49 P 90.810000 93.606000 67.835000 0 CFG=1
M  V30 50 O 92.080000 93.514000 68.611000 0
M  V30 51 O 89.509000 93.767000 68.545000 0
M  V30 52 O 90.919000 94.814000 66.808000 0
M  V30 53 O 89.385000 96.660000 67.484000 0
M  V30 54 P 89.627000 95.590000 66.307000 0 CFG=1
M  V30 55 O 89.903000 96.290000 65.021000 0
M  V30 56 O 88.514000 94.605000 66.349000 0
M  V30 57 O 90.715000 92.353000 66.849000 0
M  V30 58 C 91.958000 91.865000 66.301000 0
M  V30 59 C 91.696000 90.623000 65.491000 0 CFG=1
M  V30 60 O 92.934000 89.871000 65.411000 0
M  V30 61 C 90.669000 89.643000 66.064000 0 CFG=1
M  V30 62 O 90.074000 88.921000 64.996000 0
M  V30 63 C 91.581000 88.671000 66.807000 0 CFG=1
M  V30 64 O 90.939000 87.449000 67.079000 0
M  V30 65 C 92.699000 88.539000 65.786000 0 CFG=2
M  V30 66 N 93.938000 88.057000 66.369000 0
M  V30 67 C 94.211000 87.961000 67.705000 0
M  V30 68 N 95.418000 87.528000 67.954000 0
M  V30 69 C 95.987000 87.354000 66.702000 0
M  V30 70 C 97.286000 86.916000 66.347000 0
M  V30 71 O 98.215000 86.592000 67.093000 0
M  V30 72 N 97.472000 86.893000 64.971000 0
M  V30 73 C 96.510000 87.231000 64.058000 0
M  V30 74 N 96.869000 87.139000 62.773000 0
M  V30 75 N 95.281000 87.636000 64.382000 0
M  V30 76 C 95.086000 87.681000 65.719000 0
M  V30 77 C 90.428000 97.589000 67.945000 0
M  V30 78 C 89.909000 99.029000 67.864000 0 CFG=1
M  V30 79 O 88.504000 99.053000 68.141000 0
M  V30 80 C 90.556000 100.142000 68.643000 0
M  V30 81 S 92.062000 100.280000 69.565000 0
M  V30 82 C 89.850000 101.267000 68.649000 0
M  V30 83 S 90.857000 102.587000 69.189000 0
M  V30 84 C 88.364000 101.407000 68.483000 0 CFG=2
M  V30 85 N 87.803000 101.243000 69.816000 0
M  V30 86 C 86.629000 100.546000 70.009000 0
M  V30 87 C 86.056000 100.416000 71.278000 0
M  V30 88 O 86.543000 100.871000 72.309000 0
M  V30 89 N 84.862000 99.721000 71.359000 0
M  V30 90 C 84.259000 99.191000 70.250000 0
M  V30 91 N 83.112000 98.530000 70.420000 0
M  V30 92 N 84.790000 99.320000 69.045000 0
M  V30 93 C 85.960000 100.005000 68.910000 0
M  V30 94 N 86.495000 100.113000 67.674000 0
M  V30 95 C 87.922000 100.246000 67.618000 0 CFG=2
M  V30 96 Fe 87.827000 94.103000 139.471000 0 VAL=2
M  V30 97 Fe 89.525000 96.512000 138.968000 0 VAL=2
M  V30 98 S 89.804000 94.719000 140.200000 0
M  V30 99 S 87.364000 96.233000 139.231000 0
M  V30 100 P 90.810000 93.606000 67.835000 0 CFG=1
M  V30 101 O 92.080000 93.514000 68.611000 0
M  V30 102 O 89.509000 93.767000 68.545000 0
M  V30 103 O 90.919000 94.814000 66.808000 0
M  V30 104 O 89.385000 96.660000 67.484000 0
M  V30 105 P 89.627000 95.590000 66.307000 0 CFG=1
M  V30 106 O 89.903000 96.290000 65.021000 0
M  V30 107 O 88.514000 94.605000 66.349000 0
M  V30 108 O 90.715000 92.353000 66.849000 0
M  V30 109 C 91.958000 91.865000 66.301000 0
M  V30 110 C 91.696000 90.623000 65.491000 0 CFG=1
M  V30 111 O 92.934000 89.871000 65.411000 0
M  V30 112 C 90.669000 89.643000 66.064000 0 CFG=1
M  V30 113 O 90.074000 88.921000 64.996000 0
M  V30 114 C 91.581000 88.671000 66.807000 0 CFG=1
M  V30 115 O 90.939000 87.449000 67.079000 0
M  V30 116 C 92.699000 88.539000 65.786000 0 CFG=2
M  V30 117 N 93.938000 88.057000 66.369000 0
M  V30 118 C 94.211000 87.961000 67.705000 0
M  V30 119 N 95.418000 87.528000 67.954000 0
M  V30 120 C 95.987000 87.354000 66.702000 0
M  V30 121 C 97.286000 86.916000 66.347000 0
M  V30 122 O 98.215000 86.592000 67.093000 0
M  V30 123 N 97.472000 86.893000 64.971000 0
M  V30 124 C 96.510000 87.231000 64.058000 0
M  V30 125 N 96.869000 87.139000 62.773000 0
M  V30 126 N 95.281000 87.636000 64.382000 0
M  V30 127 C 95.086000 87.681000 65.719000 0
M  V30 128 C 90.428000 97.589000 67.945000 0
M  V30 129 C 89.909000 99.029000 67.864000 0 CFG=1
M  V30 130 O 88.504000 99.053000 68.141000 0
M  V30 131 C 90.556000 100.142000 68.643000 0
M  V30 132 S 92.062000 100.280000 69.565000 0
M  V30 133 C 89.850000 101.267000 68.649000 0
M  V30 134 S 90.857000 102.587000 69.189000 0
M  V30 135 C 88.364000 101.407000 68.483000 0 CFG=2
M  V30 136 N 87.803000 101.243000 69.816000 0
M  V30 137 C 86.629000 100.546000 70.009000 0
M  V30 138 C 86.056000 100.416000 71.278000 0
M  V30 139 O 86.543000 100.871000 72.309000 0
M  V30 140 N 84.862000 99.721000 71.359000 0
M  V30 141 C 84.259000 99.191000 70.250000 0
M  V30 142 N 83.112000 98.530000 70.420000 0
M  V30 143 N 84.790000 99.320000 69.045000 0
M  V30 144 C 85.960000 100.005000 68.910000 0
M  V30 145 N 86.495000 100.113000 67.674000 0
M  V30 146 C 87.922000 100.246000 67.618000 0 CFG=2
M  V30 147 P 90.810000 93.606000 67.835000 0 CFG=1
M  V30 148 O 92.080000 93.514000 68.611000 0
M  V30 149 O 89.509000 93.767000 68.545000 0
M  V30 150 O 90.919000 94.814000 66.808000 0
M  V30 151 O 89.385000 96.660000 67.484000 0
M  V30 152 P 89.627000 95.590000 66.307000 0 CFG=1
M  V30 153 O 89.903000 96.290000 65.021000 0
M  V30 154 O 88.514000 94.605000 66.349000 0
M  V30 155 O 90.715000 92.353000 66.849000 0
M  V30 156 C 91.958000 91.865000 66.301000 0
M  V30 157 C 91.696000 90.623000 65.491000 0 CFG=1
M  V30 158 O 92.934000 89.871000 65.411000 0
M  V30 159 C 90.669000 89.643000 66.064000 0 CFG=1
M  V30 160 O 90.074000 88.921000 64.996000 0
M  V30 161 C 91.581000 88.671000 66.807000 0 CFG=1
M  V30 162 O 90.939000 87.449000 67.079000 0
M  V30 163 C 92.699000 88.539000 65.786000 0 CFG=2
M  V30 164 N 93.938000 88.057000 66.369000 0
M  V30 165 C 94.211000 87.961000 67.705000 0
M  V30 166 N 95.418000 87.528000 67.954000 0
M  V30 167 C 95.987000 87.354000 66.702000 0
M  V30 168 C 97.286000 86.916000 66.347000 0
M  V30 169 O 98.215000 86.592000 67.093000 0
M  V30 170 N 97.472000 86.893000 64.971000 0
M  V30 171 C 96.510000 87.231000 64.058000 0
M  V30 172 N 96.869000 87.139000 62.773000 0
M  V30 173 N 95.281000 87.636000 64.382000 0
M  V30 174 C 95.086000 87.681000 65.719000 0
M  V30 175 C 90.428000 97.589000 67.945000 0
M  V30 176 C 89.909000 99.029000 67.864000 0 CFG=1
M  V30 177 O 88.504000 99.053000 68.141000 0
M  V30 178 C 90.556000 100.142000 68.643000 0
M  V30 179 S 92.062000 100.280000 69.565000 0
M  V30 180 C 89.850000 101.267000 68.649000 0
M  V30 181 S 90.857000 102.587000 69.189000 0
M  V30 182 C 88.364000 101.407000 68.483000 0 CFG=2
M  V30 183 N 87.803000 101.243000 69.816000 0
M  V30 184 C 86.629000 100.546000 70.009000 0
M  V30 185 C 86.056000 100.416000 71.278000 0
M  V30 186 O 86.543000 100.871000 72.309000 0
M  V30 187 N 84.862000 99.721000 71.359000 0
M  V30 188 C 84.259000 99.191000 70.250000 0
M  V30 189 N 83.112000 98.530000 70.420000 0
M  V30 190 N 84.790000 99.320000 69.045000 0
M  V30 191 C 85.960000 100.005000 68.910000 0
M  V30 192 N 86.495000 100.113000 67.674000 0
M  V30 193 C 87.922000 100.246000 67.618000 0 CFG=2
M  V30 194 P 90.810000 93.606000 67.835000 0 CFG=1
M  V30 195 O 92.080000 93.514000 68.611000 0
M  V30 196 O 89.509000 93.767000 68.545000 0
M  V30 197 O 90.919000 94.814000 66.808000 0
M  V30 198 O 89.385000 96.660000 67.484000 0
M  V30 199 P 89.627000 95.590000 66.307000 0 CFG=1
M  V30 200 O 89.903000 96.290000 65.021000 0
M  V30 201 O 88.514000 94.605000 66.349000 0
M  V30 202 O 90.715000 92.353000 66.849000 0
M  V30 203 C 91.958000 91.865000 66.301000 0
M  V30 204 C 91.696000 90.623000 65.491000 0 CFG=1
M  V30 205 O 92.934000 89.871000 65.411000 0
M  V30 206 C 90.669000 89.643000 66.064000 0 CFG=1
M  V30 207 O 90.074000 88.921000 64.996000 0
M  V30 208 C 91.581000 88.671000 66.807000 0 CFG=1
M  V30 209 O 90.939000 87.449000 67.079000 0
M  V30 210 C 92.699000 88.539000 65.786000 0 CFG=2
M  V30 211 N 93.938000 88.057000 66.369000 0
M  V30 212 C 94.211000 87.961000 67.705000 0
M  V30 213 N 95.418000 87.528000 67.954000 0
M  V30 214 C 95.987000 87.354000 66.702000 0
M  V30 215 C 97.286000 86.916000 66.347000 0
M  V30 216 O 98.215000 86.592000 67.093000 0
M  V30 217 N 97.472000 86.893000 64.971000 0
M  V30 218 C 96.510000 87.231000 64.058000 0
M  V30 219 N 96.869000 87.139000 62.773000 0
M  V30 220 N 95.281000 87.636000 64.382000 0
M  V30 221 C 95.086000 87.681000 65.719000 0
M  V30 222 C 90.428000 97.589000 67.945000 0
M  V30 223 C 89.909000 99.029000 67.864000 0 CFG=1
M  V30 224 O 88.504000 99.053000 68.141000 0
M  V30 225 C 90.556000 100.142000 68.643000 0
M  V30 226 S 92.062000 100.280000 69.565000 0
M  V30 227 C 89.850000 101.267000 68.649000 0
M  V30 228 S 90.857000 102.587000 69.189000 0
M  V30 229 C 88.364000 101.407000 68.483000 0 CFG=2
M  V30 230 N 87.803000 101.243000 69.816000 0
M  V30 231 C 86.629000 100.546000 70.009000 0
M  V30 232 C 86.056000 100.416000 71.278000 0
M  V30 233 O 86.543000 100.871000 72.309000 0
M  V30 234 N 84.862000 99.721000 71.359000 0
M  V30 235 C 84.259000 99.191000 70.250000 0
M  V30 236 N 83.112000 98.530000 70.420000 0
M  V30 237 N 84.790000 99.320000 69.045000 0
M  V30 238 C 85.960000 100.005000 68.910000 0
M  V30 239 N 86.495000 100.113000 67.674000 0
M  V30 240 C 87.922000 100.246000 67.618000 0 CFG=2
M  V30 END ATOM
M  V30 BEGIN BOND
M  V30 1 2 2 3
M  V30 2 1 2 4 CFG=1
M  V30 3 1 2 5
M  V30 4 1 2 10
M  V30 5 1 5 7
M  V30 6 1 6 7
M  V30 7 1 6 30
M  V30 8 2 7 8
M  V30 9 1 7 9 CFG=3
M  V30 10 1 10 11
M  V30 11 1 12 11 CFG=1
M  V30 12 1 12 13
M  V30 13 1 12 14
M  V30 14 1 13 18
M  V30 15 1 14 15 CFG=3
M  V30 16 1 14 16
M  V30 17 1 16 17 CFG=3
M  V30 18 1 16 18
M  V30 19 1 18 19 CFG=1
M  V30 20 1 19 20
M  V30 21 1 19 29
M  V30 22 2 20 21
M  V30 23 1 21 22
M  V30 24 1 22 23
M  V30 25 2 22 29
M  V30 26 2 23 24
M  V30 27 1 23 25
M  V30 28 1 25 26
M  V30 29 1 26 27
M  V30 30 2 26 28
M  V30 31 1 28 29
M  V30 32 1 31 30 CFG=1
M  V30 33 1 31 32
M  V30 34 1 31 33
M  V30 35 1 32 48
M  V30 36 1 33 34
M  V30 37 2 33 35
M  V30 38 1 35 36
M  V30 39 1 35 37
M  V30 40 1 37 38 CFG=1
M  V30 41 1 37 48
M  V30 42 1 38 39
M  V30 43 1 39 40
M  V30 44 2 39 46
M  V30 45 2 40 41
M  V30 46 1 40 42
M  V30 47 1 42 43
M  V30 48 1 43 44
M  V30 49 2 43 45
M  V30 50 1 45 46
M  V30 51 1 46 47
M  V30 52 1 48 47 CFG=1
M  V30 53 2 49 50
M  V30 54 1 49 51 CFG=1
M  V30 55 1 49 52
M  V30 56 1 49 57
M  V30 57 1 52 54
M  V30 58 1 53 54
M  V30 59 1 53 77
M  V30 60 2 54 55
M  V30 61 1 54 56 CFG=3
M  V30 62 1 57 58
M  V30 63 1 59 58 CFG=1
M  V30 64 1 59 60
M  V30 65 1 59 61
M  V30 66 1 60 65
M  V30 67 1 61 62 CFG=3
M  V30 68 1 61 63
M  V30 69 1 63 64 CFG=3
M  V30 70 1 63 65
M  V30 71 1 65 66 CFG=1
M  V30 72 1 66 67
M  V30 73 1 66 76
M  V30 74 2 67 68
M  V30 75 1 68 69
M  V30 76 1 69 70
M  V30 77 2 69 76
M  V30 78 2 70 71
M  V30 79 1 70 72
M  V30 80 1 72 73
M  V30 81 1 73 74
M  V30 82 2 73 75
M  V30 83 1 75 76
M  V30 84 1 78 77 CFG=1
M  V30 85 1 78 79
M  V30 86 1 78 80
M  V30 87 1 79 95
M  V30 88 1 80 81
M  V30 89 2 80 82
M  V30 90 1 82 83
M  V30 91 1 82 84
M  V30 92 1 84 85 CFG=1
M  V30 93 1 84 95
M  V30 94 1 85 86
M  V30 95 1 86 87
M  V30 96 2 86 93
M  V30 97 2 87 88
M  V30 98 1 87 89
M  V30 99 1 89 90
M  V30 100 1 90 91
M  V30 101 2 90 92
M  V30 102 1 92 93
M  V30 103 1 93 94
M  V30 104 1 95 94 CFG=1
M  V30 105 1 96 98
M  V30 106 1 96 99
M  V30 107 1 97 98
M  V30 108 1 97 99
M  V30 109 2 100 101
M  V30 110 1 100 102 CFG=1
M  V30 111 1 100 103
M  V30 112 1 100 108
M  V30 113 1 103 105
M  V30 114 1 104 105
M  V30 115 1 104 128
M  V30 116 2 105 106
M  V30 117 1 105 107 CFG=3
M  V30 118 1 108 109
M  V30 119 1 110 109 CFG=1
M  V30 120 1 110 111
M  V30 121 1 110 112
M  V30 122 1 111 116
M  V30 123 1 112 113 CFG=3
M  V30 124 1 112 114
M  V30 125 1 114 115 CFG=3
M  V30 126 1 114 116
M  V30 127 1 116 117 CFG=1
M  V30 128 1 117 118
M  V30 129 1 117 127
M  V30 130 2 118 119
M  V30 131 1 119 120
M  V30 132 1 120 121
M  V30 133 2 120 127
M  V30 134 2 121 122
M  V30 135 1 121 123
M  V30 136 1 123 124
M  V30 137 1 124 125
M  V30 138 2 124 126
M  V30 139 1 126 127
M  V30 140 1 129 128 CFG=1
M  V30 141 1 129 130
M  V30 142 1 129 131
M  V30 143 1 130 146
M  V30 144 1 131 132
M  V30 145 2 131 133
M  V30 146 1 133 134
M  V30 147 1 133 135
M  V30 148 1 135 136 CFG=1
M  V30 149 1 135 146
M  V30 150 1 136 137
M  V30 151 1 137 138
M  V30 152 2 137 144
M  V30 153 2 138 139
M  V30 154 1 138 140
M  V30 155 1 140 141
M  V30 156 1 141 142
M  V30 157 2 141 143
M  V30 158 1 143 144
M  V30 159 1 144 145
M  V30 160 1 146 145 CFG=1
M  V30 161 2 147 148
M  V30 162 1 147 149 CFG=1
M  V30 163 1 147 150
M  V30 164 1 147 155
M  V30 165 1 150 152
M  V30 166 1 151 152
M  V30 167 1 151 175
M  V30 168 2 152 153
M  V30 169 1 152 154 CFG=3
M  V30 170 1 155 156
M  V30 171 1 157 156 CFG=1
M  V30 172 1 157 158
M  V30 173 1 157 159
M  V30 174 1 158 163
M  V30 175 1 159 160 CFG=3
M  V30 176 1 159 161
M  V30 177 1 161 162 CFG=3
M  V30 178 1 161 163
M  V30 179 1 163 164 CFG=1
M  V30 180 1 164 165
M  V30 181 1 164 174
M  V30 182 2 165 166
M  V30 183 1 166 167
M  V30 184 1 167 168
M  V30 185 2 167 174
M  V30 186 2 168 169
M  V30 187 1 168 170
M  V30 188 1 170 171
M  V30 189 1 171 172
M  V30 190 2 171 173
M  V30 191 1 173 174
M  V30 192 1 176 175 CFG=1
M  V30 193 1 176 177
M  V30 194 1 176 178
M  V30 195 1 177 193
M  V30 196 1 178 179
M  V30 197 2 178 180
M  V30 198 1 180 181
M  V30 199 1 180 182
M  V30 200 1 182 183 CFG=1
M  V30 201 1 182 193
M  V30 202 1 183 184
M  V30 203 1 184 185
M  V30 204 2 184 191
M  V30 205 2 185 186
M  V30 206 1 185 187
M  V30 207 1 187 188
M  V30 208 1 188 189
M  V30 209 2 188 190
M  V30 210 1 190 191
M  V30 211 1 191 192
M  V30 212 1 193 192 CFG=1
M  V30 213 2 194 195
M  V30 214 1 194 196 CFG=1
M  V30 215 1 194 197
M  V30 216 1 194 202
M  V30 217 1 197 199
M  V30 218 1 198 199
M  V30 219 1 198 222
M  V30 220 2 199 200
M  V30 221 1 199 201 CFG=3
M  V30 222 1 202 203
M  V30 223 1 204 203 CFG=1
M  V30 224 1 204 205
M  V30 225 1 204 206
M  V30 226 1 205 210
M  V30 227 1 206 207 CFG=3
M  V30 228 1 206 208
M  V30 229 1 208 209 CFG=3
M  V30 230 1 208 210
M  V30 231 1 210 211 CFG=1
M  V30 232 1 211 212
M  V30 233 1 211 221
M  V30 234 2 212 213
M  V30 235 1 213 214
M  V30 236 1 214 215
M  V30 237 2 214 221
M  V30 238 2 215 216
M  V30 239 1 215 217
M  V30 240 1 217 218
M  V30 241 1 218 219
M  V30 242 2 218 220
M  V30 243 1 220 221
M  V30 244 1 223 222 CFG=1
M  V30 245 1 223 224
M  V30 246 1 223 225
M  V30 247 1 224 240
M  V30 248 1 225 226
M  V30 249 2 225 227
M  V30 250 1 227 228
M  V30 251 1 227 229
M  V30 252 1 229 230 CFG=1
M  V30 253 1 229 240
M  V30 254 1 230 231
M  V30 255 1 231 232
M  V30 256 2 231 238
M  V30 257 2 232 233
M  V30 258 1 232 234
M  V30 259 1 234 235
M  V30 260 1 235 236
M  V30 261 2 235 237
M  V30 262 1 237 238
M  V30 263 1 238 239
M  V30 264 1 240 239 CFG=1
M  V30 END BOND
M  V30 BEGIN COLLECTION
M  V30 MDLV30/STEABS ATOMS=(0)
M  V30 END COLLECTION
M  V30 END CTAB
M  END
>  <model_server_result.job_id>  (1) 
U0KLM0PGsfydqzu864nncQ

>  <model_server_result.datetime_utc>  (1) 
2024-03-15 02:27:34

>  <model_server_result.server_version>  (1) 
0.9.11

>  <model_server_result.query_name>  (1) 
ligand

>  <model_server_result.source_id>  (1) 
pdb-bcif

>  <model_server_result.entry_id>  (1) 
7e5z

>  <model_server_params.name>  (1) 
atom_site

>  <model_server_params.value>  (1) 
{"label_asym_id":"C","auth_seq_id":1000}

>  <model_server_stats.io_time_ms>  (1) 
10

>  <model_server_stats.parse_time_ms>  (1) 
47

>  <model_server_stats.create_model_time_ms>  (1) 
21

>  <model_server_stats.query_time_ms>  (1) 
205

>  <model_server_stats.encode_time_ms>  (1) 
0

>  <model_server_stats.element_count>  (1) 
1

$$$$
