W
     RDKit          3D

  0  0  0  0  0  0  0  0  0  0999 V3000
M  V30 BEGIN CTAB
M  V30 COUNTS 240 264 0 0 0
M  V30 BEGIN ATOM
M  V30 1 W -10.132379 -15.269724 -0.909146 0 VAL=-1
M  V30 2 P -7.983662 11.213217 -7.102073 0 CFG=2
M  V30 3 O -8.911744 11.405702 -8.179430 0
M  V30 4 O -7.247056 12.449445 -6.623086 0
M  V30 5 O -6.884551 10.078828 -7.435020 0
M  V30 6 O -5.724987 8.246516 -8.536739 0
M  V30 7 P -7.224129 8.617989 -8.024412 0 CFG=2
M  V30 8 O -8.036659 8.678297 -9.190815 0
M  V30 9 O -7.618622 7.805227 -6.891747 0
M  V30 10 O -8.777869 10.580981 -5.862410 0
M  V30 11 C -8.744145 10.425655 -4.917068 0
M  V30 12 C -9.730736 9.708079 -3.939937 0 CFG=1
M  V30 13 O -10.978186 10.427129 -3.941401 0
M  V30 14 C -9.969992 8.329017 -4.389565 0 CFG=1
M  V30 15 O -9.957829 7.420492 -3.235478 0
M  V30 16 C -11.324015 8.483399 -5.074208 0 CFG=1
M  V30 17 O -11.935667 7.211573 -5.053824 0
M  V30 18 C -12.003111 9.527673 -4.279970 0 CFG=2
M  V30 19 N -12.873972 10.276120 -5.106743 0
M  V30 20 C -12.613783 10.656451 -6.330247 0
M  V30 21 N -13.623212 11.372682 -6.803640 0
M  V30 22 C -14.570739 11.471084 -5.828223 0
M  V30 23 C -15.796642 12.106687 -5.680182 0
M  V30 24 O -16.350628 12.791142 -6.531182 0
M  V30 25 N -16.492365 11.982430 -4.503231 0
M  V30 26 C -16.001247 11.275245 -3.475472 0
M  V30 27 N -16.714375 11.173725 -2.333879 0
M  V30 28 N -14.763762 10.605433 -3.530689 0
M  V30 29 C -14.067656 10.739333 -4.713526 0
M  V30 30 C -4.682022 7.936470 -8.008802 0
M  V30 31 C -3.702020 7.450262 -8.978127 0 CFG=1
M  V30 32 O -4.154767 7.370791 -10.197708 0
M  V30 33 C -2.543618 8.120299 -8.889694 0
M  V30 34 S -1.883877 8.483686 -7.373394 0
M  V30 35 C -1.744544 8.231806 -10.299725 0
M  V30 36 S -0.093733 8.712452 -10.235353 0
M  V30 37 C -2.288669 7.977446 -11.672104 0 CFG=2
M  V30 38 N -2.143611 8.698224 -12.972641 0
M  V30 39 C -3.297196 9.380945 -13.692572 0
M  V30 40 C -3.453269 10.098167 -14.863602 0
M  V30 41 O -2.700154 10.132744 -15.678684 0
M  V30 42 N -4.665871 10.752186 -14.984114 0
M  V30 43 C -5.617943 10.785297 -14.125679 0
M  V30 44 N -6.615711 11.440332 -14.263941 0
M  V30 45 N -5.409536 9.993105 -13.043314 0
M  V30 46 C -4.255270 9.296334 -12.957861 0
M  V30 47 N -3.948492 8.537486 -12.042486 0
M  V30 48 C -3.302218 7.632796 -11.333891 0 CFG=2
M  V30 49 P -8.771646 6.600858 -6.632252 0 CFG=1
M  V30 50 O -9.248811 6.134312 -7.959374 0
M  V30 51 O -8.384527 5.534350 -5.629943 0
M  V30 52 O -7.722617 7.591710 -6.835845 0
M  V30 53 O -6.277246 6.789651 -5.400746 0
M  V30 54 P -6.822140 8.124723 -5.812745 0 CFG=2
M  V30 55 O -7.614587 8.774923 -4.707353 0
M  V30 56 O -5.621237 8.946554 -6.401934 0
M  V30 57 O -9.899997 7.610453 -6.011488 0
M  V30 58 C -9.857217 8.158349 -5.198150 0
M  V30 59 C -11.255380 8.467505 -4.524586 0 CFG=1
M  V30 60 O -11.615789 9.763705 -4.706750 0
M  V30 61 C -12.319022 7.540810 -5.147198 0 CFG=1
M  V30 62 O -13.026201 6.920068 -4.089628 0
M  V30 63 C -13.157453 8.499472 -5.996213 0 CFG=1
M  V30 64 O -14.573329 8.144195 -5.819832 0
M  V30 65 C -12.905916 9.878976 -5.296568 0 CFG=2
M  V30 66 N -12.923469 10.901267 -6.304688 0
M  V30 67 C -11.980999 11.190289 -7.242997 0
M  V30 68 N -12.353888 12.327481 -7.919677 0
M  V30 69 C -13.530485 12.724010 -7.447471 0
M  V30 70 C -14.420062 13.814968 -7.753838 0
M  V30 71 O -14.174230 14.672151 -8.593117 0
M  V30 72 N -15.513588 13.933054 -7.125180 0
M  V30 73 C -15.864838 13.055975 -6.172939 0
M  V30 74 N -17.013933 13.199980 -5.553332 0
M  V30 75 N -15.016799 11.930027 -5.813429 0
M  V30 76 C -13.882509 11.815816 -6.426923 0
M  V30 77 C -6.340595 6.064001 -6.520234 0
M  V30 78 C -6.263003 4.726035 -5.892365 0 CFG=1
M  V30 79 O -5.177268 3.931781 -5.956748 0
M  V30 80 C -7.087159 4.749415 -4.693267 0
M  V30 81 S -8.401741 5.860170 -4.645417 0
M  V30 82 C -6.355048 3.837039 -3.513989 0
M  V30 83 S -6.557229 4.448060 -1.869526 0
M  V30 84 C -5.439561 2.687352 -3.735434 0 CFG=2
M  V30 85 N -4.644034 1.674388 -3.159261 0
M  V30 86 C -3.216921 1.116988 -3.691882 0
M  V30 87 C -2.349149 0.134727 -3.340148 0
M  V30 88 O -2.585407 -0.655442 -2.543832 0
M  V30 89 N -1.135072 0.101286 -4.025406 0
M  V30 90 C -0.743832 0.950096 -4.988890 0
M  V30 91 N 0.416234 0.770909 -5.412278 0
M  V30 92 N -1.635448 1.799907 -5.299010 0
M  V30 93 C -2.800214 1.904103 -4.757748 0
M  V30 94 N -3.781748 2.770811 -5.113053 0
M  V30 95 C -4.749840 3.167075 -5.127920 0 CFG=2
M  V30 96 Fe 0.643501 -3.655160 -3.499085 0 VAL=2
M  V30 97 Fe -0.459618 -3.233900 -0.723299 0 VAL=2
M  V30 98 S 1.691460 -2.591474 -1.641413 0
M  V30 99 S -0.622201 -5.175216 -2.176672 0
M  V30 100 P -12.207745 -22.638903 16.448420 0 CFG=1
M  V30 101 O -13.328794 -23.584944 16.298569 0
M  V30 102 O -12.037931 -21.784355 15.314028 0
M  V30 103 O -12.345161 -22.159012 17.837667 0
M  V30 104 O -12.441566 -20.499884 18.916801 0
M  V30 105 P -11.372997 -21.531767 18.730976 0 CFG=2
M  V30 106 O -10.210708 -20.739201 18.271187 0
M  V30 107 O -11.160869 -22.393711 19.873367 0
M  V30 108 O -10.932385 -23.166979 16.681816 0
M  V30 109 C -10.243667 -22.349291 17.240870 0
M  V30 110 C -9.544947 -23.001175 18.169817 0 CFG=2
M  V30 111 O -8.258912 -23.130985 17.674488 0
M  V30 112 C -10.015982 -24.266745 18.699331 0 CFG=2
M  V30 113 O -10.520839 -24.293648 19.842941 0
M  V30 114 C -8.825543 -25.182804 18.532578 0 CFG=1
M  V30 115 O -9.182285 -26.468382 18.417797 0
M  V30 116 C -7.799765 -24.403854 18.123514 0 CFG=1
M  V30 117 N -6.784220 -24.826143 17.167912 0
M  V30 118 C -6.892842 -25.665413 16.203802 0
M  V30 119 N -5.649238 -25.774523 15.596457 0
M  V30 120 C -4.813528 -24.956726 16.179123 0
M  V30 121 C -3.476890 -24.651392 15.971544 0
M  V30 122 O -2.787936 -25.234787 15.045914 0
M  V30 123 N -2.876734 -23.749483 16.771208 0
M  V30 124 C -3.567446 -23.123758 17.771248 0
M  V30 125 N -2.895071 -22.254269 18.498430 0
M  V30 126 N -4.910811 -23.392935 17.997089 0
M  V30 127 C -5.518255 -24.359880 17.179651 0
M  V30 128 C -13.556322 -20.812386 17.819134 0
M  V30 129 C -14.048436 -19.490446 17.406610 0 CFG=2
M  V30 130 O -13.284586 -18.700565 16.587954 0
M  V30 131 C -14.971556 -18.769781 18.055885 0
M  V30 132 S -16.433382 -19.586866 18.588282 0
M  V30 133 C -14.681691 -17.141792 18.123812 0
M  V30 134 S -16.059160 -16.350737 18.918982 0
M  V30 135 C -13.648326 -16.488035 17.692711 0 CFG=1
M  V30 136 N -12.895185 -15.420759 18.122675 0
M  V30 137 C -11.421726 -15.298231 17.767883 0
M  V30 138 C -10.451808 -14.496391 18.195244 0
M  V30 139 O -10.713703 -13.602370 18.960669 0
M  V30 140 N -9.198472 -14.793034 17.631889 0
M  V30 141 C -8.884686 -15.800127 16.783260 0
M  V30 142 N -7.672635 -16.041788 16.254465 0
M  V30 143 N -9.855677 -16.510088 16.417652 0
M  V30 144 C -11.060020 -16.251272 16.838717 0
M  V30 145 N -12.072168 -16.953583 16.579077 0
M  V30 146 C -13.125725 -17.298096 16.637558 0 CFG=1
M  V30 147 P -11.526504 -27.348730 16.012787 0 CFG=2
M  V30 148 O -12.076580 -26.028028 16.341602 0
M  V30 149 O -11.634680 -27.665899 14.563704 0
M  V30 150 O -12.154354 -28.303192 17.061630 0
M  V30 151 O -12.950412 -30.315853 16.034317 0
M  V30 152 P -12.107340 -29.765976 17.244230 0 CFG=2
M  V30 153 O -12.900029 -29.923237 18.515041 0
M  V30 154 O -10.755244 -30.492783 17.225927 0
M  V30 155 O -9.976398 -27.381500 16.364328 0
M  V30 156 C -9.189748 -27.823612 15.711714 0
M  V30 157 C -7.811095 -27.915119 16.433788 0 CFG=1
M  V30 158 O -7.249003 -26.523111 16.588943 0
M  V30 159 C -8.005284 -28.544346 17.719448 0 CFG=1
M  V30 160 O -7.154259 -29.565401 17.750101 0
M  V30 161 C -7.614044 -27.431885 18.724024 0 CFG=1
M  V30 162 O -6.759228 -27.975590 19.707750 0
M  V30 163 C -6.821020 -26.354696 17.979115 0 CFG=2
M  V30 164 N -7.284076 -25.054792 18.401136 0
M  V30 165 C -8.541205 -24.628164 18.560570 0
M  V30 166 N -8.496894 -23.325865 18.911594 0
M  V30 167 C -7.206278 -22.898159 18.983995 0
M  V30 168 C -6.560579 -21.693438 19.248928 0
M  V30 169 O -7.061829 -20.616680 19.490276 0
M  V30 170 N -5.222625 -21.620939 19.234245 0
M  V30 171 C -4.549213 -22.637629 18.983635 0
M  V30 172 N -3.178350 -22.581917 19.023260 0
M  V30 173 N -5.158947 -23.976625 18.665459 0
M  V30 174 C -6.435226 -24.036068 18.665634 0
M  V30 175 C -12.919087 -29.872627 15.176252 0
M  V30 176 C -12.975721 -30.964001 14.175117 0 CFG=1
M  V30 177 O -13.127678 -32.076828 14.873522 0
M  V30 178 C -13.960203 -30.810261 13.111320 0
M  V30 179 S -14.460343 -29.371183 12.442038 0
M  V30 180 C -14.324279 -32.155769 12.547272 0
M  V30 181 S -15.321074 -32.171780 11.003414 0
M  V30 182 C -13.971559 -33.448647 12.961325 0 CFG=1
M  V30 183 N -13.891604 -34.688446 12.587109 0
M  V30 184 C -13.350576 -35.795750 13.478210 0
M  V30 185 C -13.184649 -37.068855 13.329401 0
M  V30 186 O -13.486151 -37.580257 12.295191 0
M  V30 187 N -12.675002 -37.676254 14.509504 0
M  V30 188 C -12.336419 -37.140137 15.707891 0
M  V30 189 N -11.920426 -37.819645 16.776896 0
M  V30 190 N -12.501299 -35.896889 15.762491 0
M  V30 191 C -13.005231 -35.309288 14.649666 0
M  V30 192 N -13.213445 -34.134193 14.533411 0
M  V30 193 C -13.490729 -33.231903 14.136488 0 CFG=1
M  V30 194 P 5.077477 6.345766 -12.085388 0 CFG=2
M  V30 195 O 5.053658 5.298507 -11.028616 0
M  V30 196 O 5.758958 7.656121 -11.724075 0
M  V30 197 O 3.851205 6.660573 -12.631685 0
M  V30 198 O 2.244556 6.728391 -12.248404 0
M  V30 199 P 2.914803 6.130679 -13.292267 0 CFG=2
M  V30 200 O 2.353521 4.786088 -13.289902 0
M  V30 201 O 3.113126 6.726717 -14.633678 0
M  V30 202 O 5.852293 5.770286 -13.342062 0
M  V30 203 C 5.143490 5.300857 -14.601395 0
M  V30 204 C 6.160093 4.898120 -15.391695 0 CFG=2
M  V30 205 O 6.874053 4.050043 -14.607523 0
M  V30 206 C 7.047462 5.604869 -16.211597 0 CFG=2
M  V30 207 O 7.076802 6.191767 -17.219320 0
M  V30 208 C 8.415288 4.834159 -15.918552 0 CFG=2
M  V30 209 O 9.205145 4.683579 -16.919744 0
M  V30 210 C 8.349296 4.366550 -14.683083 0 CFG=2
M  V30 211 N 9.019439 3.530003 -13.795809 0
M  V30 212 C 9.067638 3.824119 -12.530657 0
M  V30 213 N 9.742402 2.891356 -11.933853 0
M  V30 214 C 10.196625 1.987620 -12.771486 0
M  V30 215 C 10.993584 0.812927 -12.627230 0
M  V30 216 O 11.490885 0.344566 -11.579729 0
M  V30 217 N 11.266866 0.070792 -13.824560 0
M  V30 218 C 10.819324 0.417912 -14.949007 0
M  V30 219 N 11.163284 -0.384933 -16.041204 0
M  V30 220 N 10.034244 1.592288 -15.078707 0
M  V30 221 C 9.745358 2.350965 -13.976397 0
M  V30 222 C 3.473552 7.569039 -11.262228 0
M  V30 223 C 2.992909 7.879294 -9.911314 0 CFG=2
M  V30 224 O 3.647050 7.525736 -8.841482 0
M  V30 225 C 1.590881 7.825473 -9.668381 0
M  V30 226 S 0.522053 8.515636 -10.780136 0
M  V30 227 C 1.114610 7.366036 -8.166817 0
M  V30 228 S -0.610440 7.598296 -7.910649 0
M  V30 229 C 1.827632 6.816633 -7.185979 0 CFG=1
M  V30 230 N 1.737508 5.931666 -6.101260 0
M  V30 231 C 2.942163 5.100397 -5.595738 0
M  V30 232 C 3.048009 4.084880 -4.740197 0
M  V30 233 O 2.133298 3.725377 -4.089987 0
M  V30 234 N 4.316057 3.506306 -4.677340 0
M  V30 235 C 5.396167 3.879552 -5.385459 0
M  V30 236 N 6.588844 3.299100 -5.234565 0
M  V30 237 N 5.247353 4.895394 -6.169815 0
M  V30 238 C 4.108493 5.504583 -6.233371 0
M  V30 239 N 3.872168 6.450876 -7.007547 0
M  V30 240 C 3.218614 7.240385 -7.550380 0 CFG=1
M  V30 END ATOM
M  V30 BEGIN BOND
M  V30 1 2 2 3
M  V30 2 1 2 4 CFG=3
M  V30 3 1 2 5
M  V30 4 1 2 10
M  V30 5 1 5 7
M  V30 6 1 6 7
M  V30 7 1 6 30
M  V30 8 2 7 8
M  V30 9 1 7 9 CFG=3
M  V30 10 1 10 11
M  V30 11 1 12 11 CFG=3
M  V30 12 1 12 13
M  V30 13 1 12 14
M  V30 14 1 13 18
M  V30 15 1 14 15 CFG=1
M  V30 16 1 14 16
M  V30 17 1 16 17 CFG=1
M  V30 18 1 16 18
M  V30 19 1 18 19 CFG=3
M  V30 20 1 19 20
M  V30 21 1 19 29
M  V30 22 2 20 21
M  V30 23 1 21 22
M  V30 24 1 22 23
M  V30 25 2 22 29
M  V30 26 2 23 24
M  V30 27 1 23 25
M  V30 28 1 25 26
M  V30 29 1 26 27
M  V30 30 2 26 28
M  V30 31 1 28 29
M  V30 32 1 31 30 CFG=1
M  V30 33 1 31 32
M  V30 34 1 31 33
M  V30 35 1 32 48
M  V30 36 1 33 34
M  V30 37 2 33 35
M  V30 38 1 35 36
M  V30 39 1 35 37
M  V30 40 1 37 38 CFG=3
M  V30 41 1 37 48
M  V30 42 1 38 39
M  V30 43 1 39 40
M  V30 44 2 39 46
M  V30 45 2 40 41
M  V30 46 1 40 42
M  V30 47 1 42 43
M  V30 48 1 43 44
M  V30 49 2 43 45
M  V30 50 1 45 46
M  V30 51 1 46 47
M  V30 52 1 48 47 CFG=3
M  V30 53 2 49 50
M  V30 54 1 49 51 CFG=1
M  V30 55 1 49 52
M  V30 56 1 49 57
M  V30 57 1 52 54
M  V30 58 1 53 54
M  V30 59 1 53 77
M  V30 60 2 54 55
M  V30 61 1 54 56 CFG=1
M  V30 62 1 57 58
M  V30 63 1 59 58 CFG=3
M  V30 64 1 59 60
M  V30 65 1 59 61
M  V30 66 1 60 65
M  V30 67 1 61 62 CFG=1
M  V30 68 1 61 63
M  V30 69 1 63 64 CFG=1
M  V30 70 1 63 65
M  V30 71 1 65 66 CFG=3
M  V30 72 1 66 67
M  V30 73 1 66 76
M  V30 74 2 67 68
M  V30 75 1 68 69
M  V30 76 1 69 70
M  V30 77 2 69 76
M  V30 78 2 70 71
M  V30 79 1 70 72
M  V30 80 1 72 73
M  V30 81 1 73 74
M  V30 82 2 73 75
M  V30 83 1 75 76
M  V30 84 1 78 77 CFG=1
M  V30 85 1 78 79
M  V30 86 1 78 80
M  V30 87 1 79 95
M  V30 88 1 80 81
M  V30 89 2 80 82
M  V30 90 1 82 83
M  V30 91 1 82 84
M  V30 92 1 84 85 CFG=1
M  V30 93 1 84 95
M  V30 94 1 85 86
M  V30 95 1 86 87
M  V30 96 2 86 93
M  V30 97 2 87 88
M  V30 98 1 87 89
M  V30 99 1 89 90
M  V30 100 1 90 91
M  V30 101 2 90 92
M  V30 102 1 92 93
M  V30 103 1 93 94
M  V30 104 1 95 94 CFG=1
M  V30 105 1 96 98
M  V30 106 1 96 99
M  V30 107 1 97 98
M  V30 108 1 97 99
M  V30 109 2 100 101
M  V30 110 1 100 102 CFG=3
M  V30 111 1 100 103
M  V30 112 1 100 108
M  V30 113 1 103 105
M  V30 114 1 104 105
M  V30 115 1 104 128
M  V30 116 2 105 106
M  V30 117 1 105 107 CFG=3
M  V30 118 1 108 109
M  V30 119 1 110 109 CFG=1
M  V30 120 1 110 111
M  V30 121 1 110 112
M  V30 122 1 111 116
M  V30 123 1 112 113 CFG=3
M  V30 124 1 112 114
M  V30 125 1 114 115 CFG=3
M  V30 126 1 114 116
M  V30 127 1 116 117 CFG=1
M  V30 128 1 117 118
M  V30 129 1 117 127
M  V30 130 2 118 119
M  V30 131 1 119 120
M  V30 132 1 120 121
M  V30 133 2 120 127
M  V30 134 2 121 122
M  V30 135 1 121 123
M  V30 136 1 123 124
M  V30 137 1 124 125
M  V30 138 2 124 126
M  V30 139 1 126 127
M  V30 140 1 129 128 CFG=3
M  V30 141 1 129 130
M  V30 142 1 129 131
M  V30 143 1 130 146
M  V30 144 1 131 132
M  V30 145 2 131 133
M  V30 146 1 133 134
M  V30 147 1 133 135
M  V30 148 1 135 136 CFG=3
M  V30 149 1 135 146
M  V30 150 1 136 137
M  V30 151 1 137 138
M  V30 152 2 137 144
M  V30 153 2 138 139
M  V30 154 1 138 140
M  V30 155 1 140 141
M  V30 156 1 141 142
M  V30 157 2 141 143
M  V30 158 1 143 144
M  V30 159 1 144 145
M  V30 160 1 146 145 CFG=3
M  V30 161 2 147 148
M  V30 162 1 147 149 CFG=1
M  V30 163 1 147 150
M  V30 164 1 147 155
M  V30 165 1 150 152
M  V30 166 1 151 152
M  V30 167 1 151 175
M  V30 168 2 152 153
M  V30 169 1 152 154 CFG=3
M  V30 170 1 155 156
M  V30 171 1 157 156 CFG=1
M  V30 172 1 157 158
M  V30 173 1 157 159
M  V30 174 1 158 163
M  V30 175 1 159 160 CFG=3
M  V30 176 1 159 161
M  V30 177 1 161 162 CFG=1
M  V30 178 1 161 163
M  V30 179 1 163 164 CFG=1
M  V30 180 1 164 165
M  V30 181 1 164 174
M  V30 182 2 165 166
M  V30 183 1 166 167
M  V30 184 1 167 168
M  V30 185 2 167 174
M  V30 186 2 168 169
M  V30 187 1 168 170
M  V30 188 1 170 171
M  V30 189 1 171 172
M  V30 190 2 171 173
M  V30 191 1 173 174
M  V30 192 1 176 175 CFG=1
M  V30 193 1 176 177
M  V30 194 1 176 178
M  V30 195 1 177 193
M  V30 196 1 178 179
M  V30 197 2 178 180
M  V30 198 1 180 181
M  V30 199 1 180 182
M  V30 200 1 182 183 CFG=1
M  V30 201 1 182 193
M  V30 202 1 183 184
M  V30 203 1 184 185
M  V30 204 2 184 191
M  V30 205 2 185 186
M  V30 206 1 185 187
M  V30 207 1 187 188
M  V30 208 1 188 189
M  V30 209 2 188 190
M  V30 210 1 190 191
M  V30 211 1 191 192
M  V30 212 1 193 192 CFG=1
M  V30 213 2 194 195
M  V30 214 1 194 196 CFG=3
M  V30 215 1 194 197
M  V30 216 1 194 202
M  V30 217 1 197 199
M  V30 218 1 198 199
M  V30 219 1 198 222
M  V30 220 2 199 200
M  V30 221 1 199 201 CFG=1
M  V30 222 1 202 203
M  V30 223 1 204 203 CFG=3
M  V30 224 1 204 205
M  V30 225 1 204 206
M  V30 226 1 205 210
M  V30 227 1 206 207 CFG=1
M  V30 228 1 206 208
M  V30 229 1 208 209 CFG=1
M  V30 230 1 208 210
M  V30 231 1 210 211 CFG=3
M  V30 232 1 211 212
M  V30 233 1 211 221
M  V30 234 2 212 213
M  V30 235 1 213 214
M  V30 236 1 214 215
M  V30 237 2 214 221
M  V30 238 2 215 216
M  V30 239 1 215 217
M  V30 240 1 217 218
M  V30 241 1 218 219
M  V30 242 2 218 220
M  V30 243 1 220 221
M  V30 244 1 223 222 CFG=1
M  V30 245 1 223 224
M  V30 246 1 223 225
M  V30 247 1 224 240
M  V30 248 1 225 226
M  V30 249 2 225 227
M  V30 250 1 227 228
M  V30 251 1 227 229
M  V30 252 1 229 230 CFG=1
M  V30 253 1 229 240
M  V30 254 1 230 231
M  V30 255 1 231 232
M  V30 256 2 231 238
M  V30 257 2 232 233
M  V30 258 1 232 234
M  V30 259 1 234 235
M  V30 260 1 235 236
M  V30 261 2 235 237
M  V30 262 1 237 238
M  V30 263 1 238 239
M  V30 264 1 240 239 CFG=1
M  V30 END BOND
M  V30 BEGIN COLLECTION
M  V30 MDLV30/STEABS ATOMS=(0)
M  V30 END COLLECTION
M  V30 END CTAB
M  END
>  <model_server_result.job_id>  (1) 
U0KLM0PGsfydqzu864nncQ

>  <model_server_result.datetime_utc>  (1) 
2024-03-15 02:27:34

>  <model_server_result.server_version>  (1) 
0.9.11

>  <model_server_result.query_name>  (1) 
ligand

>  <model_server_result.source_id>  (1) 
pdb-bcif

>  <model_server_result.entry_id>  (1) 
7e5z

>  <model_server_params.name>  (1) 
atom_site

>  <model_server_params.value>  (1) 
{"label_asym_id":"C","auth_seq_id":1000}

>  <model_server_stats.io_time_ms>  (1) 
10

>  <model_server_stats.parse_time_ms>  (1) 
47

>  <model_server_stats.create_model_time_ms>  (1) 
21

>  <model_server_stats.query_time_ms>  (1) 
205

>  <model_server_stats.encode_time_ms>  (1) 
0

>  <model_server_stats.element_count>  (1) 
1

$$$$
