W
     RDKit          3D

  0  0  0  0  0  0  0  0  0  0999 V3000
M  V30 BEGIN CTAB
M  V30 COUNTS 240 264 0 0 0
M  V30 BEGIN ATOM
M  V30 1 W -3.264560 4.312531 -0.877848 0 VAL=-1
M  V30 2 P -7.733401 -9.667436 2.441604 0 CFG=1
M  V30 3 O -8.078885 -8.436872 1.652000 0
M  V30 4 O -6.341555 -9.706451 2.802830 0
M  V30 5 O -8.697234 -9.766683 3.668704 0
M  V30 6 O -8.787854 -9.679104 6.009375 0
M  V30 7 P -8.463706 -10.701172 4.862044 0 CFG=1
M  V30 8 O -9.511353 -11.761893 4.771458 0
M  V30 9 O -7.057238 -11.135946 5.039995 0
M  V30 10 O -8.153793 -10.964664 1.719477 0
M  V30 11 C -9.311081 -10.749321 0.856607 0
M  V30 12 C -8.941961 -12.145220 0.447090 0 CFG=1
M  V30 13 O -7.748261 -12.154691 1.132592 0
M  V30 14 C -9.942245 -13.164540 0.956312 0 CFG=1
M  V30 15 O -10.175647 -14.051882 -0.074248 0
M  V30 16 C -9.229733 -13.683921 2.051853 0 CFG=1
M  V30 17 O -9.214487 -15.096539 1.899977 0
M  V30 18 C -7.818297 -13.202949 1.954380 0 CFG=2
M  V30 19 N -7.469399 -12.640902 3.161606 0
M  V30 20 C -8.185459 -12.505589 4.255251 0
M  V30 21 N -7.548734 -11.874957 5.236585 0
M  V30 22 C -6.377450 -11.534745 4.743676 0
M  V30 23 C -5.270493 -10.841765 5.304761 0
M  V30 24 O -5.114334 -10.366420 6.531994 0
M  V30 25 N -4.146766 -10.598847 4.593347 0
M  V30 26 C -4.156853 -11.014907 3.343183 0
M  V30 27 N -3.012197 -10.797458 2.652010 0
M  V30 28 N -5.224596 -11.737781 2.707223 0
M  V30 29 C -6.318994 -12.001055 3.458082 0
M  V30 30 C -8.879988 -8.539282 5.867108 0
M  V30 31 C -9.070684 -8.148314 7.314029 0 CFG=1
M  V30 32 O -10.281645 -8.215548 7.810602 0
M  V30 33 C -8.043906 -7.876488 8.033982 0
M  V30 34 S -6.590574 -7.141503 7.555682 0
M  V30 35 C -8.357203 -8.181366 9.503418 0
M  V30 36 S -6.912253 -7.853565 10.606023 0
M  V30 37 C -9.498511 -8.569124 10.138135 0 CFG=1
M  V30 38 N -9.883121 -9.013069 11.218762 0
M  V30 39 C -11.362656 -8.957882 11.471081 0
M  V30 40 C -12.086078 -9.287821 12.492645 0
M  V30 41 O -11.549477 -9.818201 13.375183 0
M  V30 42 N -13.450980 -8.925885 12.380449 0
M  V30 43 C -14.069225 -8.304837 11.329280 0
M  V30 44 N -15.319008 -7.909199 11.267652 0
M  V30 45 N -13.306488 -8.052526 10.359574 0
M  V30 46 C -12.090400 -8.382965 10.493313 0
M  V30 47 N -11.318242 -8.217066 9.691358 0
M  V30 48 C -10.475018 -8.088242 9.182914 0 CFG=2
M  V30 49 P -4.825997 1.956554 12.131686 0 CFG=1
M  V30 50 O -5.532897 3.124647 11.519650 0
M  V30 51 O -5.716390 0.768325 12.186425 0
M  V30 52 O -3.484945 1.793040 11.493597 0
M  V30 53 O -3.133016 0.366670 12.755289 0
M  V30 54 P -2.353738 1.403816 12.272698 0 CFG=1
M  V30 55 O -1.211515 0.583443 12.100487 0
M  V30 56 O -1.944971 2.601341 12.922949 0
M  V30 57 O -4.441475 2.229088 13.545868 0
M  V30 58 C -3.428113 1.231404 14.097176 0
M  V30 59 C -2.956818 1.846984 15.365890 0 CFG=1
M  V30 60 O -1.900978 2.515357 15.284389 0
M  V30 61 C -4.021364 2.809470 15.866788 0 CFG=1
M  V30 62 O -4.479836 2.534715 17.116636 0
M  V30 63 C -3.357021 4.187483 15.751691 0 CFG=1
M  V30 64 O -3.617561 5.009494 16.918844 0
M  V30 65 C -1.897516 3.888203 15.733612 0 CFG=2
M  V30 66 N -1.167569 4.783448 14.867821 0
M  V30 67 C -0.246861 4.468512 13.973866 0
M  V30 68 N 0.350652 5.524822 13.428480 0
M  V30 69 C -0.211764 6.595940 13.928824 0
M  V30 70 C 0.058056 8.000275 13.701311 0
M  V30 71 O 0.975194 8.423212 12.960698 0
M  V30 72 N -0.752721 8.883899 14.366132 0
M  V30 73 C -1.753908 8.470414 15.180570 0
M  V30 74 N -2.464719 9.444664 15.707287 0
M  V30 75 N -2.018216 7.111322 15.457845 0
M  V30 76 C -1.192223 6.181018 14.815317 0
M  V30 77 C -4.488307 0.603158 12.460718 0
M  V30 78 C -4.747632 -0.693539 12.562098 0 CFG=1
M  V30 79 O -5.994185 -1.332597 12.542481 0
M  V30 80 C -3.678771 -1.574008 12.628472 0
M  V30 81 S -2.027139 -1.039633 12.597494 0
M  V30 82 C -3.989180 -3.112253 12.759918 0
M  V30 83 S -2.627662 -4.098928 13.118510 0
M  V30 84 C -5.287741 -3.642772 12.672886 0 CFG=1
M  V30 85 N -5.814952 -4.930079 12.704731 0
M  V30 86 C -7.349466 -5.255075 12.585546 0
M  V30 87 C -8.083985 -6.379102 12.613260 0
M  V30 88 O -7.593893 -7.442484 12.720034 0
M  V30 89 N -9.455017 -6.188606 12.509819 0
M  V30 90 C -10.107357 -5.037899 12.390232 0
M  V30 91 N -11.422890 -4.885569 12.330950 0
M  V30 92 N -9.332426 -4.035390 12.354589 0
M  V30 93 C -8.076529 -4.145725 12.447868 0
M  V30 94 N -7.180344 -3.145366 12.453930 0
M  V30 95 C -6.206438 -2.579772 12.524915 0 CFG=1
M  V30 96 Fe -3.955404 2.246836 -0.450765 0 VAL=2
M  V30 97 Fe -4.276921 4.989074 -1.634443 0 VAL=2
M  V30 98 S -2.553331 4.216136 -0.192239 0
M  V30 99 S -4.612562 2.865359 -2.715484 0
M  V30 100 P -9.911847 14.616733 -25.927176 0 CFG=2
M  V30 101 O -9.295777 15.364512 -27.115648 0
M  V30 102 O -10.754708 13.431835 -26.262249 0
M  V30 103 O -10.682523 15.616336 -25.004259 0
M  V30 104 O -10.588285 16.670586 -22.889742 0
M  V30 105 P -10.109408 16.809681 -24.389622 0 CFG=1
M  V30 106 O -8.600294 16.883209 -24.351698 0
M  V30 107 O -10.796047 17.856941 -25.175081 0
M  V30 108 O -8.892950 14.296014 -24.864893 0
M  V30 109 C -8.361691 15.176597 -24.404665 0
M  V30 110 C -8.856904 14.976253 -23.033272 0 CFG=2
M  V30 111 O -8.432001 13.616965 -22.688284 0
M  V30 112 C -10.307672 15.095506 -23.080221 0 CFG=2
M  V30 113 O -10.691658 15.856435 -22.051720 0
M  V30 114 C -10.688863 13.655226 -22.986731 0 CFG=2
M  V30 115 O -11.918050 13.510943 -22.491598 0
M  V30 116 C -9.560310 12.989242 -22.141413 0 CFG=1
M  V30 117 N -9.450777 11.611607 -22.454327 0
M  V30 118 C -10.121312 10.919012 -23.366604 0
M  V30 119 N -9.883093 9.650044 -23.234577 0
M  V30 120 C -8.960109 9.516467 -22.252644 0
M  V30 121 C -8.321231 8.442420 -21.703169 0
M  V30 122 O -8.490716 7.222956 -22.034531 0
M  V30 123 N -7.420693 8.619366 -20.726332 0
M  V30 124 C -7.150953 9.846660 -20.333778 0
M  V30 125 N -6.233024 10.003527 -19.419510 0
M  V30 126 N -7.785448 11.014467 -20.830509 0
M  V30 127 C -8.711473 10.789861 -21.790428 0
M  V30 128 C -10.215173 16.510838 -21.978550 0
M  V30 129 C -10.318265 15.701735 -20.733469 0 CFG=1
M  V30 130 O -11.130390 16.177441 -19.747559 0
M  V30 131 C -10.549996 14.417764 -21.036652 0
M  V30 132 S -9.192326 13.743003 -21.756907 0
M  V30 133 C -11.634348 13.613400 -20.224600 0
M  V30 134 S -11.575567 11.913882 -20.408331 0
M  V30 135 C -12.675310 14.088326 -19.475698 0 CFG=2
M  V30 136 N -13.973553 13.855398 -19.230133 0
M  V30 137 C -15.030899 14.904618 -18.919523 0
M  V30 138 C -16.344742 14.888379 -18.820162 0
M  V30 139 O -16.891842 13.829220 -18.825293 0
M  V30 140 N -16.894506 16.144474 -18.686007 0
M  V30 141 C -16.266611 17.381626 -18.664078 0
M  V30 142 N -16.856731 18.511169 -18.498978 0
M  V30 143 N -15.066426 17.303383 -18.711750 0
M  V30 144 C -14.453347 16.153202 -18.766703 0
M  V30 145 N -13.236555 16.127789 -18.778664 0
M  V30 146 C -12.226921 15.380769 -18.975090 0 CFG=2
M  V30 147 P -6.820648 -8.095806 3.256940 0 CFG=2
M  V30 148 O -5.506512 -8.504738 2.666488 0
M  V30 149 O -8.104124 -8.681431 2.687504 0
M  V30 150 O -6.842322 -6.757520 3.179839 0
M  V30 151 O -6.789242 -6.216135 5.496447 0
M  V30 152 P -7.125513 -5.651407 4.052860 0 CFG=1
M  V30 153 O -6.086126 -4.601538 3.692709 0
M  V30 154 O -8.592255 -5.254409 4.047839 0
M  V30 155 O -6.845916 -8.434458 4.795112 0
M  V30 156 C -6.259193 -7.314517 5.727211 0
M  V30 157 C -6.049324 -8.289172 6.993336 0 CFG=2
M  V30 158 O -6.322995 -9.569013 6.390383 0
M  V30 159 C -7.049728 -8.005713 8.092407 0 CFG=2
M  V30 160 O -6.352433 -8.030528 9.248569 0
M  V30 161 C -8.016894 -9.203987 8.002861 0 CFG=2
M  V30 162 O -8.140559 -9.831939 9.283407 0
M  V30 163 C -7.399856 -10.257038 7.092754 0 CFG=1
M  V30 164 N -8.390511 -10.571274 6.045591 0
M  V30 165 C -9.125667 -9.731018 5.367652 0
M  V30 166 N -9.820238 -10.395031 4.512192 0
M  V30 167 C -9.576400 -11.716446 4.580265 0
M  V30 168 C -10.026006 -12.841796 3.881981 0
M  V30 169 O -10.834790 -12.918928 2.908676 0
M  V30 170 N -9.573840 -14.092790 4.196561 0
M  V30 171 C -8.729259 -14.184149 5.165282 0
M  V30 172 N -8.346670 -15.405334 5.399737 0
M  V30 173 N -8.221616 -13.095185 5.882537 0
M  V30 174 C -8.672521 -11.848353 5.562470 0
M  V30 175 C -6.893158 -6.811526 6.246682 0
M  V30 176 C -6.091729 -6.828211 7.498758 0 CFG=1
M  V30 177 O -6.737249 -7.348584 8.591906 0
M  V30 178 C -4.972059 -7.544347 7.267973 0
M  V30 179 S -4.035312 -7.250402 5.914087 0
M  V30 180 C -4.421701 -8.256060 8.517844 0
M  V30 181 S -2.694676 -8.698099 8.379818 0
M  V30 182 C -5.054160 -8.603791 9.742998 0 CFG=2
M  V30 183 N -4.894025 -9.796907 10.653456 0
M  V30 184 C -6.091545 -10.655858 11.073948 0
M  V30 185 C -6.270649 -11.821265 11.807947 0
M  V30 186 O -5.561256 -12.376444 12.540712 0
M  V30 187 N -7.486584 -12.476084 11.809496 0
M  V30 188 C -8.492971 -12.098041 11.143604 0
M  V30 189 N -9.531116 -12.720178 11.126971 0
M  V30 190 N -8.275602 -10.913484 10.497250 0
M  V30 191 C -7.128275 -10.213897 10.551170 0
M  V30 192 N -6.897280 -9.122553 10.040336 0
M  V30 193 C -6.264900 -7.975617 9.637212 0 CFG=2
M  V30 194 P -7.420953 12.315205 -29.436470 0 CFG=2
M  V30 195 O -6.674864 11.225947 -28.740883 0
M  V30 196 O -6.597641 13.277242 -30.225803 0
M  V30 197 O -8.436282 13.001683 -28.674997 0
M  V30 198 O -10.735126 13.169261 -29.041883 0
M  V30 199 P -9.676086 12.301598 -28.249668 0 CFG=1
M  V30 200 O -9.800424 10.902724 -28.731258 0
M  V30 201 O -9.672453 12.508934 -26.794878 0
M  V30 202 O -8.531209 11.720885 -30.239281 0
M  V30 203 C -9.253973 11.817205 -30.688076 0
M  V30 204 C -10.411999 12.197693 -30.127583 0 CFG=1
M  V30 205 O -10.477789 11.727954 -28.790333 0
M  V30 206 C -10.742239 13.546391 -30.289452 0 CFG=1
M  V30 207 O -11.575868 13.695833 -31.184193 0
M  V30 208 C -11.133342 13.845358 -28.828819 0 CFG=1
M  V30 209 O -12.133279 14.739795 -28.593580 0
M  V30 210 C -11.284377 12.587141 -28.163019 0 CFG=2
M  V30 211 N -11.046346 12.675680 -26.793833 0
M  V30 212 C -11.419859 13.617909 -26.014980 0
M  V30 213 N -11.183928 13.364178 -24.723707 0
M  V30 214 C -10.605994 12.170735 -24.682970 0
M  V30 215 C -10.166688 11.368570 -23.645086 0
M  V30 216 O -10.257400 11.582587 -22.402222 0
M  V30 217 N -9.587307 10.195400 -23.868439 0
M  V30 218 C -9.435232 9.841386 -25.128559 0
M  V30 219 N -8.819714 8.670161 -25.385624 0
M  V30 220 N -9.898643 10.578432 -26.327320 0
M  V30 221 C -10.494348 11.746440 -26.000511 0
M  V30 222 C -10.846456 13.922734 -29.490679 0
M  V30 223 C -12.166608 14.010627 -30.142584 0 CFG=1
M  V30 224 O -12.737411 14.976163 -29.732805 0
M  V30 225 C -12.539776 13.229859 -31.174915 0
M  V30 226 S -12.154491 11.642006 -31.525894 0
M  V30 227 C -13.604900 13.999217 -32.078247 0
M  V30 228 S -14.409928 13.094975 -33.356594 0
M  V30 229 C -13.930648 15.239469 -31.973927 0 CFG=2
M  V30 230 N -14.310467 16.249046 -32.764141 0
M  V30 231 C -13.923545 17.697212 -32.541519 0
M  V30 232 C -14.181234 18.743103 -33.374241 0
M  V30 233 O -14.908052 18.547165 -34.305569 0
M  V30 234 N -13.516475 19.950424 -32.965656 0
M  V30 235 C -12.697469 20.123001 -31.885326 0
M  V30 236 N -12.084897 21.232998 -31.675526 0
M  V30 237 N -12.551795 19.107552 -31.125816 0
M  V30 238 C -13.191787 17.972275 -31.396152 0
M  V30 239 N -13.067816 17.010605 -30.562946 0
M  V30 240 C -13.570998 15.771432 -30.637249 0 CFG=2
M  V30 END ATOM
M  V30 BEGIN BOND
M  V30 1 2 2 3
M  V30 2 1 2 4 CFG=1
M  V30 3 1 2 5
M  V30 4 1 2 10
M  V30 5 1 5 7
M  V30 6 1 6 7
M  V30 7 1 6 30
M  V30 8 2 7 8
M  V30 9 1 7 9 CFG=1
M  V30 10 1 10 11
M  V30 11 1 12 11 CFG=1
M  V30 12 1 12 13
M  V30 13 1 12 14
M  V30 14 1 13 18
M  V30 15 1 14 15 CFG=3
M  V30 16 1 14 16
M  V30 17 1 16 17 CFG=3
M  V30 18 1 16 18
M  V30 19 1 18 19 CFG=1
M  V30 20 1 19 20
M  V30 21 1 19 29
M  V30 22 2 20 21
M  V30 23 1 21 22
M  V30 24 1 22 23
M  V30 25 2 22 29
M  V30 26 2 23 24
M  V30 27 1 23 25
M  V30 28 1 25 26
M  V30 29 1 26 27
M  V30 30 2 26 28
M  V30 31 1 28 29
M  V30 32 1 31 30 CFG=1
M  V30 33 1 31 32
M  V30 34 1 31 33
M  V30 35 1 32 48
M  V30 36 1 33 34
M  V30 37 2 33 35
M  V30 38 1 35 36
M  V30 39 1 35 37
M  V30 40 1 37 38 CFG=3
M  V30 41 1 37 48
M  V30 42 1 38 39
M  V30 43 1 39 40
M  V30 44 2 39 46
M  V30 45 2 40 41
M  V30 46 1 40 42
M  V30 47 1 42 43
M  V30 48 1 43 44
M  V30 49 2 43 45
M  V30 50 1 45 46
M  V30 51 1 46 47
M  V30 52 1 48 47 CFG=1
M  V30 53 2 49 50
M  V30 54 1 49 51 CFG=1
M  V30 55 1 49 52
M  V30 56 1 49 57
M  V30 57 1 52 54
M  V30 58 1 53 54
M  V30 59 1 53 77
M  V30 60 2 54 55
M  V30 61 1 54 56 CFG=1
M  V30 62 1 57 58
M  V30 63 1 59 58 CFG=3
M  V30 64 1 59 60
M  V30 65 1 59 61
M  V30 66 1 60 65
M  V30 67 1 61 62 CFG=1
M  V30 68 1 61 63
M  V30 69 1 63 64 CFG=1
M  V30 70 1 63 65
M  V30 71 1 65 66 CFG=3
M  V30 72 1 66 67
M  V30 73 1 66 76
M  V30 74 2 67 68
M  V30 75 1 68 69
M  V30 76 1 69 70
M  V30 77 2 69 76
M  V30 78 2 70 71
M  V30 79 1 70 72
M  V30 80 1 72 73
M  V30 81 1 73 74
M  V30 82 2 73 75
M  V30 83 1 75 76
M  V30 84 1 78 77 CFG=3
M  V30 85 1 78 79
M  V30 86 1 78 80
M  V30 87 1 79 95
M  V30 88 1 80 81
M  V30 89 2 80 82
M  V30 90 1 82 83
M  V30 91 1 82 84
M  V30 92 1 84 85 CFG=3
M  V30 93 1 84 95
M  V30 94 1 85 86
M  V30 95 1 86 87
M  V30 96 2 86 93
M  V30 97 2 87 88
M  V30 98 1 87 89
M  V30 99 1 89 90
M  V30 100 1 90 91
M  V30 101 2 90 92
M  V30 102 1 92 93
M  V30 103 1 93 94
M  V30 104 1 95 94 CFG=3
M  V30 105 1 96 98
M  V30 106 1 96 99
M  V30 107 1 97 98
M  V30 108 1 97 99
M  V30 109 2 100 101
M  V30 110 1 100 102 CFG=1
M  V30 111 1 100 103
M  V30 112 1 100 108
M  V30 113 1 103 105
M  V30 114 1 104 105
M  V30 115 1 104 128
M  V30 116 2 105 106
M  V30 117 1 105 107 CFG=3
M  V30 118 1 108 109
M  V30 119 1 110 109 CFG=1
M  V30 120 1 110 111
M  V30 121 1 110 112
M  V30 122 1 111 116
M  V30 123 1 112 113 CFG=3
M  V30 124 1 112 114
M  V30 125 1 114 115 CFG=3
M  V30 126 1 114 116
M  V30 127 1 116 117 CFG=1
M  V30 128 1 117 118
M  V30 129 1 117 127
M  V30 130 2 118 119
M  V30 131 1 119 120
M  V30 132 1 120 121
M  V30 133 2 120 127
M  V30 134 2 121 122
M  V30 135 1 121 123
M  V30 136 1 123 124
M  V30 137 1 124 125
M  V30 138 2 124 126
M  V30 139 1 126 127
M  V30 140 1 129 128 CFG=3
M  V30 141 1 129 130
M  V30 142 1 129 131
M  V30 143 1 130 146
M  V30 144 1 131 132
M  V30 145 2 131 133
M  V30 146 1 133 134
M  V30 147 1 133 135
M  V30 148 1 135 136 CFG=3
M  V30 149 1 135 146
M  V30 150 1 136 137
M  V30 151 1 137 138
M  V30 152 2 137 144
M  V30 153 2 138 139
M  V30 154 1 138 140
M  V30 155 1 140 141
M  V30 156 1 141 142
M  V30 157 2 141 143
M  V30 158 1 143 144
M  V30 159 1 144 145
M  V30 160 1 146 145 CFG=3
M  V30 161 2 147 148
M  V30 162 1 147 149 CFG=1
M  V30 163 1 147 150
M  V30 164 1 147 155
M  V30 165 1 150 152
M  V30 166 1 151 152
M  V30 167 1 151 175
M  V30 168 2 152 153
M  V30 169 1 152 154 CFG=1
M  V30 170 1 155 156
M  V30 171 1 157 156 CFG=1
M  V30 172 1 157 158
M  V30 173 1 157 159
M  V30 174 1 158 163
M  V30 175 1 159 160 CFG=3
M  V30 176 1 159 161
M  V30 177 1 161 162 CFG=3
M  V30 178 1 161 163
M  V30 179 1 163 164 CFG=1
M  V30 180 1 164 165
M  V30 181 1 164 174
M  V30 182 2 165 166
M  V30 183 1 166 167
M  V30 184 1 167 168
M  V30 185 2 167 174
M  V30 186 2 168 169
M  V30 187 1 168 170
M  V30 188 1 170 171
M  V30 189 1 171 172
M  V30 190 2 171 173
M  V30 191 1 173 174
M  V30 192 1 176 175 CFG=3
M  V30 193 1 176 177
M  V30 194 1 176 178
M  V30 195 1 177 193
M  V30 196 1 178 179
M  V30 197 2 178 180
M  V30 198 1 180 181
M  V30 199 1 180 182
M  V30 200 1 182 183 CFG=3
M  V30 201 1 182 193
M  V30 202 1 183 184
M  V30 203 1 184 185
M  V30 204 2 184 191
M  V30 205 2 185 186
M  V30 206 1 185 187
M  V30 207 1 187 188
M  V30 208 1 188 189
M  V30 209 2 188 190
M  V30 210 1 190 191
M  V30 211 1 191 192
M  V30 212 1 193 192 CFG=3
M  V30 213 2 194 195
M  V30 214 1 194 196 CFG=1
M  V30 215 1 194 197
M  V30 216 1 194 202
M  V30 217 1 197 199
M  V30 218 1 198 199
M  V30 219 1 198 222
M  V30 220 2 199 200
M  V30 221 1 199 201 CFG=1
M  V30 222 1 202 203
M  V30 223 1 204 203 CFG=1
M  V30 224 1 204 205
M  V30 225 1 204 206
M  V30 226 1 205 210
M  V30 227 1 206 207 CFG=3
M  V30 228 1 206 208
M  V30 229 1 208 209 CFG=3
M  V30 230 1 208 210
M  V30 231 1 210 211 CFG=1
M  V30 232 1 211 212
M  V30 233 1 211 221
M  V30 234 2 212 213
M  V30 235 1 213 214
M  V30 236 1 214 215
M  V30 237 2 214 221
M  V30 238 2 215 216
M  V30 239 1 215 217
M  V30 240 1 217 218
M  V30 241 1 218 219
M  V30 242 2 218 220
M  V30 243 1 220 221
M  V30 244 1 223 222 CFG=3
M  V30 245 1 223 224
M  V30 246 1 223 225
M  V30 247 1 224 240
M  V30 248 1 225 226
M  V30 249 2 225 227
M  V30 250 1 227 228
M  V30 251 1 227 229
M  V30 252 1 229 230 CFG=3
M  V30 253 1 229 240
M  V30 254 1 230 231
M  V30 255 1 231 232
M  V30 256 2 231 238
M  V30 257 2 232 233
M  V30 258 1 232 234
M  V30 259 1 234 235
M  V30 260 1 235 236
M  V30 261 2 235 237
M  V30 262 1 237 238
M  V30 263 1 238 239
M  V30 264 1 240 239 CFG=3
M  V30 END BOND
M  V30 BEGIN COLLECTION
M  V30 MDLV30/STEABS ATOMS=(0)
M  V30 END COLLECTION
M  V30 END CTAB
M  END
>  <model_server_result.job_id>  (1) 
U0KLM0PGsfydqzu864nncQ

>  <model_server_result.datetime_utc>  (1) 
2024-03-15 02:27:34

>  <model_server_result.server_version>  (1) 
0.9.11

>  <model_server_result.query_name>  (1) 
ligand

>  <model_server_result.source_id>  (1) 
pdb-bcif

>  <model_server_result.entry_id>  (1) 
7e5z

>  <model_server_params.name>  (1) 
atom_site

>  <model_server_params.value>  (1) 
{"label_asym_id":"C","auth_seq_id":1000}

>  <model_server_stats.io_time_ms>  (1) 
10

>  <model_server_stats.parse_time_ms>  (1) 
47

>  <model_server_stats.create_model_time_ms>  (1) 
21

>  <model_server_stats.query_time_ms>  (1) 
205

>  <model_server_stats.encode_time_ms>  (1) 
0

>  <model_server_stats.element_count>  (1) 
1

$$$$
