W
     RDKit          3D

  0  0  0  0  0  0  0  0  0  0999 V3000
M  V30 BEGIN CTAB
M  V30 COUNTS 240 264 0 0 0
M  V30 BEGIN ATOM
M  V30 1 W 3.489413 12.102831 -22.910887 0 VAL=-1
M  V30 2 P 11.383259 -2.412265 7.948204 0 CFG=1
M  V30 3 O 11.588453 -3.444012 9.020131 0
M  V30 4 O 11.699984 -2.786445 6.572447 0
M  V30 5 O 9.886925 -1.912311 7.969968 0
M  V30 6 O 8.003344 -2.798377 9.284725 0
M  V30 7 P 8.496895 -2.833156 7.753206 0 CFG=1
M  V30 8 O 7.596426 -2.011356 6.874125 0
M  V30 9 O 8.735855 -4.228432 7.400289 0
M  V30 10 O 12.097141 -1.044750 8.314319 0
M  V30 11 C 12.162373 -0.355348 9.033441 0
M  V30 12 C 13.272150 0.633175 9.506336 0 CFG=1
M  V30 13 O 14.563101 0.040599 9.352663 0
M  V30 14 C 13.326120 1.964489 9.031708 0 CFG=1
M  V30 15 O 13.386702 2.914796 9.914437 0
M  V30 16 C 14.574781 1.992918 8.123629 0 CFG=1
M  V30 17 O 15.178125 3.229706 8.125443 0
M  V30 18 C 15.452391 0.920806 8.660348 0 CFG=2
M  V30 19 N 16.170593 0.116178 7.693288 0
M  V30 20 C 15.593857 -0.518826 6.694378 0
M  V30 21 N 16.528589 -1.268829 6.079317 0
M  V30 22 C 17.722260 -1.089918 6.671997 0
M  V30 23 C 19.024330 -1.625531 6.448583 0
M  V30 24 O 19.423340 -2.454962 5.568255 0
M  V30 25 N 20.131596 -1.258975 7.259628 0
M  V30 26 C 19.845135 -0.360948 8.246483 0
M  V30 27 N 21.012907 -0.114281 8.892150 0
M  V30 28 N 18.589598 0.158015 8.493164 0
M  V30 29 C 17.508947 -0.178021 7.731654 0
M  V30 30 C 7.683407 -3.383939 10.327413 0
M  V30 31 C 7.790454 -2.330244 11.321010 0 CFG=1
M  V30 32 O 8.420506 -2.561811 12.588399 0
M  V30 33 C 8.334112 -1.433605 10.594151 0
M  V30 34 S 7.856662 -1.277913 9.055687 0
M  V30 35 C 9.011839 -0.344980 11.511959 0
M  V30 36 S 8.258284 1.186479 11.467720 0
M  V30 37 C 10.111118 -0.716978 12.445561 0 CFG=1
M  V30 38 N 11.312197 -0.378187 13.054581 0
M  V30 39 C 11.817282 -1.025654 14.409285 0
M  V30 40 C 12.991602 -0.975024 15.191627 0
M  V30 41 O 13.958942 -0.420244 14.969195 0
M  V30 42 N 12.976324 -1.637253 16.416985 0
M  V30 43 C 11.964006 -2.357366 16.911312 0
M  V30 44 N 11.976662 -2.878729 18.024015 0
M  V30 45 N 10.909742 -2.383629 16.087986 0
M  V30 46 C 10.819643 -1.780163 14.979711 0
M  V30 47 N 9.864662 -1.827900 14.234986 0
M  V30 48 C 9.042622 -1.620295 13.344790 0 CFG=2
M  V30 49 P 5.678302 -6.618931 6.056181 0 CFG=2
M  V30 50 O 6.879675 -6.212893 5.272906 0
M  V30 51 O 5.208157 -8.050254 5.988739 0
M  V30 52 O 4.605283 -5.792761 5.703675 0
M  V30 53 O 4.207598 -6.298129 7.781940 0
M  V30 54 P 3.862672 -5.231638 6.790956 0 CFG=2
M  V30 55 O 2.364618 -5.273280 6.599839 0
M  V30 56 O 4.463903 -3.904490 7.182323 0
M  V30 57 O 5.954236 -6.322295 7.559950 0
M  V30 58 C 5.411446 -5.075277 7.978844 0
M  V30 59 C 5.718263 -4.900041 9.472882 0 CFG=2
M  V30 60 O 7.030258 -5.567481 9.809404 0
M  V30 61 C 4.638828 -5.502017 10.229617 0 CFG=2
M  V30 62 O 4.153082 -4.588508 11.014562 0
M  V30 63 C 5.376009 -6.670827 10.980741 0 CFG=2
M  V30 64 O 4.882205 -6.844271 12.252505 0
M  V30 65 C 6.853917 -6.292469 11.082832 0 CFG=1
M  V30 66 N 7.695260 -7.538101 11.052442 0
M  V30 67 C 7.377644 -8.695532 10.479712 0
M  V30 68 N 8.356232 -9.570470 10.740876 0
M  V30 69 C 9.338701 -8.981339 11.459859 0
M  V30 70 C 10.554935 -9.395652 11.965406 0
M  V30 71 O 11.099733 -10.495678 11.902942 0
M  V30 72 N 11.354387 -8.538011 12.684396 0
M  V30 73 C 10.939331 -7.336156 12.853797 0
M  V30 74 N 11.737452 -6.499736 13.566075 0
M  V30 75 N 9.689259 -6.862629 12.346982 0
M  V30 76 C 8.907198 -7.699301 11.662600 0
M  V30 77 C 4.422291 -7.289164 7.310996 0
M  V30 78 C 4.819661 -8.188700 8.319244 0 CFG=2
M  V30 79 O 5.880538 -8.902102 8.126033 0
M  V30 80 C 4.043473 -8.374401 9.456417 0
M  V30 81 S 2.593517 -7.541725 9.822117 0
M  V30 82 C 4.648832 -9.405152 10.368227 0
M  V30 83 S 3.701925 -9.605160 11.901345 0
M  V30 84 C 5.758247 -10.257074 10.088653 0 CFG=2
M  V30 85 N 6.635739 -10.812545 11.050399 0
M  V30 86 C 8.053295 -11.172032 10.583248 0
M  V30 87 C 9.086847 -11.821681 11.151863 0
M  V30 88 O 9.048536 -12.311639 12.308505 0
M  V30 89 N 10.257143 -12.001805 10.403068 0
M  V30 90 C 10.500458 -11.542951 9.163648 0
M  V30 91 N 11.626585 -11.746023 8.467267 0
M  V30 92 N 9.552860 -10.921249 8.694272 0
M  V30 93 C 8.393267 -10.767949 9.395692 0
M  V30 94 N 7.421992 -10.173084 8.988286 0
M  V30 95 C 6.300343 -9.730222 8.918557 0 CFG=2
M  V30 96 Fe 0.621910 -2.192593 -2.236175 0 VAL=2
M  V30 97 Fe 0.925891 0.759203 -2.451379 0 VAL=2
M  V30 98 S -0.179943 -0.539493 -0.809551 0
M  V30 99 S 0.563900 -0.796004 -3.922134 0
M  V30 100 P 3.858862 31.313446 -23.349695 0 CFG=1
M  V30 101 O 4.787337 31.744820 -24.366598 0
M  V30 102 O 2.392464 31.395939 -23.764820 0
M  V30 103 O 4.101958 30.174797 -22.633133 0
M  V30 104 O 5.324980 28.735838 -22.096476 0
M  V30 105 P 4.905398 29.927620 -21.407059 0 CFG=1
M  V30 106 O 6.089649 30.728031 -21.191633 0
M  V30 107 O 4.151525 29.547623 -20.258350 0
M  V30 108 O 4.076217 32.115601 -22.166380 0
M  V30 109 C 5.050875 31.361229 -21.220745 0
M  V30 110 C 4.613770 31.861267 -19.874384 0 CFG=2
M  V30 111 O 3.335825 31.350983 -19.715322 0
M  V30 112 C 4.544506 33.343826 -19.765392 0 CFG=2
M  V30 113 O 4.975699 33.870205 -18.633265 0
M  V30 114 C 3.067606 33.601311 -19.919798 0 CFG=2
M  V30 115 O 2.667308 34.748074 -19.279882 0
M  V30 116 C 2.449661 32.402012 -19.412849 0 CFG=1
M  V30 117 N 1.185786 32.059052 -20.017319 0
M  V30 118 C 0.790478 32.161816 -21.277155 0
M  V30 119 N -0.494083 31.754620 -21.355963 0
M  V30 120 C -0.879915 31.368279 -20.151602 0
M  V30 121 C -2.035264 30.848763 -19.593555 0
M  V30 122 O -3.088301 30.647213 -20.212212 0
M  V30 123 N -2.048929 30.568676 -18.231657 0
M  V30 124 C -0.994613 30.760204 -17.460140 0
M  V30 125 N -1.167663 30.418499 -16.177017 0
M  V30 126 N 0.116990 31.258038 -17.958141 0
M  V30 127 C 0.191542 31.556423 -19.305393 0
M  V30 128 C 4.453485 28.635979 -23.493876 0
M  V30 129 C 5.394277 27.586067 -24.274185 0 CFG=1
M  V30 130 O 6.311822 28.090473 -24.894485 0
M  V30 131 C 5.640514 26.566221 -23.339523 0
M  V30 132 S 4.441646 25.361040 -23.473259 0
M  V30 133 C 7.217900 26.355259 -23.066874 0
M  V30 134 S 7.594661 24.901899 -22.108215 0
M  V30 135 C 8.258850 27.028233 -23.542271 0 CFG=1
M  V30 136 N 9.475590 27.446926 -23.540407 0
M  V30 137 C 10.032780 28.660280 -24.380142 0
M  V30 138 C 11.210451 29.294441 -24.517008 0
M  V30 139 O 12.132393 28.814503 -23.808655 0
M  V30 140 N 11.306011 30.415016 -25.489773 0
M  V30 141 C 10.336130 30.906448 -26.255379 0
M  V30 142 N 10.529827 31.872330 -27.022638 0
M  V30 143 N 9.178753 30.266830 -26.121403 0
M  V30 144 C 9.111717 29.190977 -25.259706 0
M  V30 145 N 8.182213 28.532938 -25.095888 0
M  V30 146 C 7.560620 27.618076 -24.885571 0 CFG=2
M  V30 147 P -0.382260 -14.026448 7.154352 0 CFG=1
M  V30 148 O 0.788764 -14.272504 7.997550 0
M  V30 149 O -1.545766 -13.394215 7.720485 0
M  V30 150 O -0.083441 -13.269760 6.047597 0
M  V30 151 O 0.005258 -12.853539 3.934354 0
M  V30 152 P 0.778117 -12.553441 5.169610 0 CFG=2
M  V30 153 O 2.164720 -13.059523 5.026150 0
M  V30 154 O 0.623159 -11.130236 5.563293 0
M  V30 155 O -0.776916 -15.382698 6.490367 0
M  V30 156 C -0.296318 -15.661273 5.490291 0
M  V30 157 C -0.594032 -17.076292 4.981860 0 CFG=1
M  V30 158 O -1.477052 -17.687845 5.841089 0
M  V30 159 C -1.139019 -16.979048 3.582493 0 CFG=1
M  V30 160 O -0.277582 -17.730890 2.818949 0
M  V30 161 C -2.494589 -17.582449 3.662700 0 CFG=1
M  V30 162 O -2.625592 -18.678219 2.807273 0
M  V30 163 C -2.588082 -18.120621 5.104593 0 CFG=2
M  V30 164 N -3.718524 -17.675631 5.757528 0
M  V30 165 C -3.896188 -16.454491 6.086215 0
M  V30 166 N -4.974108 -16.378185 6.794691 0
M  V30 167 C -5.536959 -17.589304 6.900439 0
M  V30 168 C -6.688966 -18.089170 7.484467 0
M  V30 169 O -7.535894 -17.434500 8.091127 0
M  V30 170 N -6.980319 -19.414129 7.373656 0
M  V30 171 C -6.186218 -20.209158 6.744280 0
M  V30 172 N -6.498420 -21.483196 6.663799 0
M  V30 173 N -5.006306 -19.739016 6.149214 0
M  V30 174 C -4.703497 -18.418674 6.230453 0
M  V30 175 C -0.911118 -13.872107 4.133441 0
M  V30 176 C -2.001146 -14.420169 3.186460 0 CFG=1
M  V30 177 O -2.811704 -13.679574 2.730042 0
M  V30 178 C -1.405708 -15.511404 2.584609 0
M  V30 179 S 0.211840 -15.814480 2.508877 0
M  V30 180 C -2.628450 -16.189558 1.820415 0
M  V30 181 S -3.167199 -17.706120 2.461376 0
M  V30 182 C -3.489194 -15.525829 0.782727 0 CFG=1
M  V30 183 N -4.293385 -15.260032 -0.174560 0
M  V30 184 C -4.892245 -13.867303 -0.607645 0
M  V30 185 C -5.567409 -13.398946 -1.628251 0
M  V30 186 O -5.867146 -14.174532 -2.417875 0
M  V30 187 N -5.886411 -11.980869 -1.594440 0
M  V30 188 C -5.546257 -11.092726 -0.660352 0
M  V30 189 N -5.875345 -9.858208 -0.719280 0
M  V30 190 N -4.886179 -11.567056 0.343496 0
M  V30 191 C -4.666277 -12.845695 0.325246 0
M  V30 192 N -4.083482 -13.438458 1.160051 0
M  V30 193 C -3.721892 -14.215445 1.809758 0 CFG=2
M  V30 194 P 1.532896 26.390608 -22.023481 0 CFG=1
M  V30 195 O 2.245905 26.501095 -23.292749 0
M  V30 196 O 1.983305 27.372118 -20.980595 0
M  V30 197 O 0.024390 26.354174 -22.061842 0
M  V30 198 O -1.481112 27.839218 -22.815876 0
M  V30 199 P -1.194287 26.360796 -22.947868 0 CFG=2
M  V30 200 O -2.185490 25.538174 -22.265043 0
M  V30 201 O -1.115839 26.149212 -24.375063 0
M  V30 202 O 1.894952 25.005997 -21.389956 0
M  V30 203 C 1.269305 24.337364 -20.785366 0
M  V30 204 C 1.679860 22.981117 -20.402063 0 CFG=1
M  V30 205 O 1.189527 22.431028 -19.266058 0
M  V30 206 C 1.847054 21.981148 -21.376373 0 CFG=1
M  V30 207 O 3.009223 21.440016 -21.493629 0
M  V30 208 C 0.739938 20.921898 -20.938665 0 CFG=1
M  V30 209 O 0.961729 19.653114 -21.399826 0
M  V30 210 C 0.660648 21.058084 -19.509508 0 CFG=2
M  V30 211 N -0.610251 20.813480 -18.852154 0
M  V30 212 C -1.575335 21.655962 -18.711624 0
M  V30 213 N -2.505090 21.160736 -17.960739 0
M  V30 214 C -2.156470 19.899733 -17.626305 0
M  V30 215 C -2.730100 18.879955 -16.857048 0
M  V30 216 O -3.816926 18.964788 -16.252401 0
M  V30 217 N -2.003613 17.639877 -16.739513 0
M  V30 218 C -0.880979 17.486752 -17.335993 0
M  V30 219 N -0.312053 16.260492 -17.145433 0
M  V30 220 N -0.267979 18.475189 -18.107672 0
M  V30 221 C -0.918162 19.695957 -18.211321 0
M  V30 222 C -1.658537 28.437231 -21.897861 0
M  V30 223 C -0.746550 29.488390 -22.220844 0 CFG=2
M  V30 224 O -0.954776 30.253544 -23.293943 0
M  V30 225 C 0.348074 29.372669 -21.689831 0
M  V30 226 S 0.502697 29.005186 -19.985262 0
M  V30 227 C 1.521156 29.836819 -22.630413 0
M  V30 228 S 3.030514 30.146358 -21.948141 0
M  V30 229 C 1.176044 29.924397 -24.037519 0 CFG=2
M  V30 230 N 2.109532 30.354778 -25.118677 0
M  V30 231 C 1.614915 30.493477 -26.567341 0
M  V30 232 C 2.179938 30.624199 -27.741539 0
M  V30 233 O 3.374348 30.829582 -27.834976 0
M  V30 234 N 1.309813 30.530762 -28.832247 0
M  V30 235 C 0.035650 30.352947 -28.765759 0
M  V30 236 N -0.723139 30.268414 -29.846275 0
M  V30 237 N -0.434436 30.297539 -27.623865 0
M  V30 238 C 0.332158 30.445339 -26.565290 0
M  V30 239 N -0.087444 30.426403 -25.301224 0
M  V30 240 C -0.011573 30.508461 -24.104929 0 CFG=1
M  V30 END ATOM
M  V30 BEGIN BOND
M  V30 1 2 2 3
M  V30 2 1 2 4 CFG=3
M  V30 3 1 2 5
M  V30 4 1 2 10
M  V30 5 1 5 7
M  V30 6 1 6 7
M  V30 7 1 6 30
M  V30 8 2 7 8
M  V30 9 1 7 9 CFG=3
M  V30 10 1 10 11
M  V30 11 1 12 11 CFG=3
M  V30 12 1 12 13
M  V30 13 1 12 14
M  V30 14 1 13 18
M  V30 15 1 14 15 CFG=1
M  V30 16 1 14 16
M  V30 17 1 16 17 CFG=1
M  V30 18 1 16 18
M  V30 19 1 18 19 CFG=3
M  V30 20 1 19 20
M  V30 21 1 19 29
M  V30 22 2 20 21
M  V30 23 1 21 22
M  V30 24 1 22 23
M  V30 25 2 22 29
M  V30 26 2 23 24
M  V30 27 1 23 25
M  V30 28 1 25 26
M  V30 29 1 26 27
M  V30 30 2 26 28
M  V30 31 1 28 29
M  V30 32 1 31 30 CFG=3
M  V30 33 1 31 32
M  V30 34 1 31 33
M  V30 35 1 32 48
M  V30 36 1 33 34
M  V30 37 2 33 35
M  V30 38 1 35 36
M  V30 39 1 35 37
M  V30 40 1 37 38 CFG=3
M  V30 41 1 37 48
M  V30 42 1 38 39
M  V30 43 1 39 40
M  V30 44 2 39 46
M  V30 45 2 40 41
M  V30 46 1 40 42
M  V30 47 1 42 43
M  V30 48 1 43 44
M  V30 49 2 43 45
M  V30 50 1 45 46
M  V30 51 1 46 47
M  V30 52 1 48 47 CFG=1
M  V30 53 2 49 50
M  V30 54 1 49 51 CFG=3
M  V30 55 1 49 52
M  V30 56 1 49 57
M  V30 57 1 52 54
M  V30 58 1 53 54
M  V30 59 1 53 77
M  V30 60 2 54 55
M  V30 61 1 54 56 CFG=3
M  V30 62 1 57 58
M  V30 63 1 59 58 CFG=1
M  V30 64 1 59 60
M  V30 65 1 59 61
M  V30 66 1 60 65
M  V30 67 1 61 62 CFG=3
M  V30 68 1 61 63
M  V30 69 1 63 64 CFG=3
M  V30 70 1 63 65
M  V30 71 1 65 66 CFG=1
M  V30 72 1 66 67
M  V30 73 1 66 76
M  V30 74 2 67 68
M  V30 75 1 68 69
M  V30 76 1 69 70
M  V30 77 2 69 76
M  V30 78 2 70 71
M  V30 79 1 70 72
M  V30 80 1 72 73
M  V30 81 1 73 74
M  V30 82 2 73 75
M  V30 83 1 75 76
M  V30 84 1 78 77 CFG=1
M  V30 85 1 78 79
M  V30 86 1 78 80
M  V30 87 1 79 95
M  V30 88 1 80 81
M  V30 89 2 80 82
M  V30 90 1 82 83
M  V30 91 1 82 84
M  V30 92 1 84 85 CFG=1
M  V30 93 1 84 95
M  V30 94 1 85 86
M  V30 95 1 86 87
M  V30 96 2 86 93
M  V30 97 2 87 88
M  V30 98 1 87 89
M  V30 99 1 89 90
M  V30 100 1 90 91
M  V30 101 2 90 92
M  V30 102 1 92 93
M  V30 103 1 93 94
M  V30 104 1 95 94 CFG=1
M  V30 105 1 96 98
M  V30 106 1 96 99
M  V30 107 1 97 98
M  V30 108 1 97 99
M  V30 109 2 100 101
M  V30 110 1 100 102 CFG=3
M  V30 111 1 100 103
M  V30 112 1 100 108
M  V30 113 1 103 105
M  V30 114 1 104 105
M  V30 115 1 104 128
M  V30 116 2 105 106
M  V30 117 1 105 107 CFG=1
M  V30 118 1 108 109
M  V30 119 1 110 109 CFG=1
M  V30 120 1 110 111
M  V30 121 1 110 112
M  V30 122 1 111 116
M  V30 123 1 112 113 CFG=3
M  V30 124 1 112 114
M  V30 125 1 114 115 CFG=3
M  V30 126 1 114 116
M  V30 127 1 116 117 CFG=1
M  V30 128 1 117 118
M  V30 129 1 117 127
M  V30 130 2 118 119
M  V30 131 1 119 120
M  V30 132 1 120 121
M  V30 133 2 120 127
M  V30 134 2 121 122
M  V30 135 1 121 123
M  V30 136 1 123 124
M  V30 137 1 124 125
M  V30 138 2 124 126
M  V30 139 1 126 127
M  V30 140 1 129 128 CFG=1
M  V30 141 1 129 130
M  V30 142 1 129 131
M  V30 143 1 130 146
M  V30 144 1 131 132
M  V30 145 2 131 133
M  V30 146 1 133 134
M  V30 147 1 133 135
M  V30 148 1 135 136 CFG=1
M  V30 149 1 135 146
M  V30 150 1 136 137
M  V30 151 1 137 138
M  V30 152 2 137 144
M  V30 153 2 138 139
M  V30 154 1 138 140
M  V30 155 1 140 141
M  V30 156 1 141 142
M  V30 157 2 141 143
M  V30 158 1 143 144
M  V30 159 1 144 145
M  V30 160 1 146 145 CFG=1
M  V30 161 2 147 148
M  V30 162 1 147 149 CFG=1
M  V30 163 1 147 150
M  V30 164 1 147 155
M  V30 165 1 150 152
M  V30 166 1 151 152
M  V30 167 1 151 175
M  V30 168 2 152 153
M  V30 169 1 152 154 CFG=3
M  V30 170 1 155 156
M  V30 171 1 157 156 CFG=1
M  V30 172 1 157 158
M  V30 173 1 157 159
M  V30 174 1 158 163
M  V30 175 1 159 160 CFG=3
M  V30 176 1 159 161
M  V30 177 1 161 162 CFG=3
M  V30 178 1 161 163
M  V30 179 1 163 164 CFG=1
M  V30 180 1 164 165
M  V30 181 1 164 174
M  V30 182 2 165 166
M  V30 183 1 166 167
M  V30 184 1 167 168
M  V30 185 2 167 174
M  V30 186 2 168 169
M  V30 187 1 168 170
M  V30 188 1 170 171
M  V30 189 1 171 172
M  V30 190 2 171 173
M  V30 191 1 173 174
M  V30 192 1 176 175 CFG=3
M  V30 193 1 176 177
M  V30 194 1 176 178
M  V30 195 1 177 193
M  V30 196 1 178 179
M  V30 197 2 178 180
M  V30 198 1 180 181
M  V30 199 1 180 182
M  V30 200 1 182 183 CFG=3
M  V30 201 1 182 193
M  V30 202 1 183 184
M  V30 203 1 184 185
M  V30 204 2 184 191
M  V30 205 2 185 186
M  V30 206 1 185 187
M  V30 207 1 187 188
M  V30 208 1 188 189
M  V30 209 2 188 190
M  V30 210 1 190 191
M  V30 211 1 191 192
M  V30 212 1 193 192 CFG=3
M  V30 213 2 194 195
M  V30 214 1 194 196 CFG=1
M  V30 215 1 194 197
M  V30 216 1 194 202
M  V30 217 1 197 199
M  V30 218 1 198 199
M  V30 219 1 198 222
M  V30 220 2 199 200
M  V30 221 1 199 201 CFG=1
M  V30 222 1 202 203
M  V30 223 1 204 203 CFG=3
M  V30 224 1 204 205
M  V30 225 1 204 206
M  V30 226 1 205 210
M  V30 227 1 206 207 CFG=1
M  V30 228 1 206 208
M  V30 229 1 208 209 CFG=1
M  V30 230 1 208 210
M  V30 231 1 210 211 CFG=3
M  V30 232 1 211 212
M  V30 233 1 211 221
M  V30 234 2 212 213
M  V30 235 1 213 214
M  V30 236 1 214 215
M  V30 237 2 214 221
M  V30 238 2 215 216
M  V30 239 1 215 217
M  V30 240 1 217 218
M  V30 241 1 218 219
M  V30 242 2 218 220
M  V30 243 1 220 221
M  V30 244 1 223 222 CFG=1
M  V30 245 1 223 224
M  V30 246 1 223 225
M  V30 247 1 224 240
M  V30 248 1 225 226
M  V30 249 2 225 227
M  V30 250 1 227 228
M  V30 251 1 227 229
M  V30 252 1 229 230 CFG=3
M  V30 253 1 229 240
M  V30 254 1 230 231
M  V30 255 1 231 232
M  V30 256 2 231 238
M  V30 257 2 232 233
M  V30 258 1 232 234
M  V30 259 1 234 235
M  V30 260 1 235 236
M  V30 261 2 235 237
M  V30 262 1 237 238
M  V30 263 1 238 239
M  V30 264 1 240 239 CFG=1
M  V30 END BOND
M  V30 BEGIN COLLECTION
M  V30 MDLV30/STEABS ATOMS=(0)
M  V30 END COLLECTION
M  V30 END CTAB
M  END
>  <model_server_result.job_id>  (1) 
U0KLM0PGsfydqzu864nncQ

>  <model_server_result.datetime_utc>  (1) 
2024-03-15 02:27:34

>  <model_server_result.server_version>  (1) 
0.9.11

>  <model_server_result.query_name>  (1) 
ligand

>  <model_server_result.source_id>  (1) 
pdb-bcif

>  <model_server_result.entry_id>  (1) 
7e5z

>  <model_server_params.name>  (1) 
atom_site

>  <model_server_params.value>  (1) 
{"label_asym_id":"C","auth_seq_id":1000}

>  <model_server_stats.io_time_ms>  (1) 
10

>  <model_server_stats.parse_time_ms>  (1) 
47

>  <model_server_stats.create_model_time_ms>  (1) 
21

>  <model_server_stats.query_time_ms>  (1) 
205

>  <model_server_stats.encode_time_ms>  (1) 
0

>  <model_server_stats.element_count>  (1) 
1

$$$$
