ZN
     RDKit          3D

  0  0  0  0  0  0  0  0  0  0999 V3000
M  V30 BEGIN CTAB
M  V30 COUNTS 5 2 0 0 0
M  V30 BEGIN ATOM
M  V30 1 Zn -11.967486 3.076072 -7.295995 0 CHG=2 VAL=-1
M  V30 2 O 3.615838 -1.454628 2.913056 0
M  V30 3 O 1.988549 -1.792561 2.903376 0
M  V30 4 C 3.037095 -2.449872 3.298818 0
M  V30 5 O 3.948621 -2.186293 4.169558 0
M  V30 END ATOM
M  V30 BEGIN BOND
M  V30 1 2 3 4
M  V30 2 2 4 5
M  V30 END BOND
M  V30 BEGIN COLLECTION
M  V30 MDLV30/STEABS ATOMS=(0)
M  V30 END COLLECTION
M  V30 END CTAB
M  END
>  <model_server_result.job_id>  (1) 
_A-df7-1Vu3UugWSCejwrg

>  <model_server_result.datetime_utc>  (1) 
2024-03-13 15:44:59

>  <model_server_result.server_version>  (1) 
0.9.11

>  <model_server_result.query_name>  (1) 
ligand

>  <model_server_result.source_id>  (1) 
pdb-bcif

>  <model_server_result.entry_id>  (1) 
1v9e

>  <model_server_params.name>  (1) 
atom_site

>  <model_server_params.value>  (1) 
{"label_asym_id":"C","auth_seq_id":260}

>  <model_server_stats.io_time_ms>  (1) 
10

>  <model_server_stats.parse_time_ms>  (1) 
49

>  <model_server_stats.create_model_time_ms>  (1) 
36

>  <model_server_stats.query_time_ms>  (1) 
238

>  <model_server_stats.encode_time_ms>  (1) 
0

>  <model_server_stats.element_count>  (1) 
1

$$$$
